# generated using pymatgen
data_NaCl
_symmetry_space_group_name_H-M   'P 1'
_cell_length_a   32.19708336
_cell_length_b   32.19708336
_cell_length_c   32.19708336
_cell_angle_alpha   60.00000000
_cell_angle_beta   60.00000000
_cell_angle_gamma   60.00000000
_symmetry_Int_Tables_number   1
_chemical_formula_structural   NaCl
_chemical_formula_sum   'Na512 Cl512'
_cell_volume   23601.22787867
_cell_formula_units_Z   512
loop_
 _symmetry_equiv_pos_site_id
 _symmetry_equiv_pos_as_xyz
  1  'x, y, z'
loop_
 _atom_site_type_symbol
 _atom_site_label
 _atom_site_symmetry_multiplicity
 _atom_site_fract_x
 _atom_site_fract_y
 _atom_site_fract_z
 _atom_site_occupancy
  Na  Na0  1  0.00000000  0.00000000  0.00000000  1.0
  Na  Na1  1  0.00000000  0.00000000  0.12500000  1.0
  Na  Na2  1  0.00000000  0.00000000  0.25000000  1.0
  Na  Na3  1  0.00000000  0.00000000  0.37500000  1.0
  Na  Na4  1  0.00000000  0.00000000  0.50000000  1.0
  Na  Na5  1  0.00000000  0.00000000  0.62500000  1.0
  Na  Na6  1  0.00000000  0.00000000  0.75000000  1.0
  Na  Na7  1  0.00000000  0.00000000  0.87500000  1.0
  Na  Na8  1  0.00000000  0.12500000  0.00000000  1.0
  Na  Na9  1  0.00000000  0.12500000  0.12500000  1.0
  Na  Na10  1  0.00000000  0.12500000  0.25000000  1.0
  Na  Na11  1  0.00000000  0.12500000  0.37500000  1.0
  Na  Na12  1  0.00000000  0.12500000  0.50000000  1.0
  Na  Na13  1  0.00000000  0.12500000  0.62500000  1.0
  Na  Na14  1  0.00000000  0.12500000  0.75000000  1.0
  Na  Na15  1  0.00000000  0.12500000  0.87500000  1.0
  Na  Na16  1  0.00000000  0.25000000  0.00000000  1.0
  Na  Na17  1  0.00000000  0.25000000  0.12500000  1.0
  Na  Na18  1  0.00000000  0.25000000  0.25000000  1.0
  Na  Na19  1  0.00000000  0.25000000  0.37500000  1.0
  Na  Na20  1  0.00000000  0.25000000  0.50000000  1.0
  Na  Na21  1  0.00000000  0.25000000  0.62500000  1.0
  Na  Na22  1  0.00000000  0.25000000  0.75000000  1.0
  Na  Na23  1  0.00000000  0.25000000  0.87500000  1.0
  Na  Na24  1  0.00000000  0.37500000  0.00000000  1.0
  Na  Na25  1  0.00000000  0.37500000  0.12500000  1.0
  Na  Na26  1  0.00000000  0.37500000  0.25000000  1.0
  Na  Na27  1  0.00000000  0.37500000  0.37500000  1.0
  Na  Na28  1  0.00000000  0.37500000  0.50000000  1.0
  Na  Na29  1  0.00000000  0.37500000  0.62500000  1.0
  Na  Na30  1  0.00000000  0.37500000  0.75000000  1.0
  Na  Na31  1  0.00000000  0.37500000  0.87500000  1.0
  Na  Na32  1  0.00000000  0.50000000  0.00000000  1.0
  Na  Na33  1  0.00000000  0.50000000  0.12500000  1.0
  Na  Na34  1  0.00000000  0.50000000  0.25000000  1.0
  Na  Na35  1  0.00000000  0.50000000  0.37500000  1.0
  Na  Na36  1  0.00000000  0.50000000  0.50000000  1.0
  Na  Na37  1  0.00000000  0.50000000  0.62500000  1.0
  Na  Na38  1  0.00000000  0.50000000  0.75000000  1.0
  Na  Na39  1  0.00000000  0.50000000  0.87500000  1.0
  Na  Na40  1  0.00000000  0.62500000  0.00000000  1.0
  Na  Na41  1  0.00000000  0.62500000  0.12500000  1.0
  Na  Na42  1  0.00000000  0.62500000  0.25000000  1.0
  Na  Na43  1  0.00000000  0.62500000  0.37500000  1.0
  Na  Na44  1  0.00000000  0.62500000  0.50000000  1.0
  Na  Na45  1  0.00000000  0.62500000  0.62500000  1.0
  Na  Na46  1  0.00000000  0.62500000  0.75000000  1.0
  Na  Na47  1  0.00000000  0.62500000  0.87500000  1.0
  Na  Na48  1  0.00000000  0.75000000  0.00000000  1.0
  Na  Na49  1  0.00000000  0.75000000  0.12500000  1.0
  Na  Na50  1  0.00000000  0.75000000  0.25000000  1.0
  Na  Na51  1  0.00000000  0.75000000  0.37500000  1.0
  Na  Na52  1  0.00000000  0.75000000  0.50000000  1.0
  Na  Na53  1  0.00000000  0.75000000  0.62500000  1.0
  Na  Na54  1  0.00000000  0.75000000  0.75000000  1.0
  Na  Na55  1  0.00000000  0.75000000  0.87500000  1.0
  Na  Na56  1  1.00000000  0.87500000  0.00000000  1.0
  Na  Na57  1  1.00000000  0.87500000  0.12500000  1.0
  Na  Na58  1  1.00000000  0.87500000  0.25000000  1.0
  Na  Na59  1  1.00000000  0.87500000  0.37500000  1.0
  Na  Na60  1  1.00000000  0.87500000  0.50000000  1.0
  Na  Na61  1  1.00000000  0.87500000  0.62500000  1.0
  Na  Na62  1  1.00000000  0.87500000  0.75000000  1.0
  Na  Na63  1  1.00000000  0.87500000  0.87500000  1.0
  Na  Na64  1  0.12500000  0.00000000  0.00000000  1.0
  Na  Na65  1  0.12500000  0.00000000  0.12500000  1.0
  Na  Na66  1  0.12500000  0.00000000  0.25000000  1.0
  Na  Na67  1  0.12500000  0.00000000  0.37500000  1.0
  Na  Na68  1  0.12500000  0.00000000  0.50000000  1.0
  Na  Na69  1  0.12500000  0.00000000  0.62500000  1.0
  Na  Na70  1  0.12500000  0.00000000  0.75000000  1.0
  Na  Na71  1  0.12500000  0.00000000  0.87500000  1.0
  Na  Na72  1  0.12500000  0.12500000  0.00000000  1.0
  Na  Na73  1  0.12500000  0.12500000  0.12500000  1.0
  Na  Na74  1  0.12500000  0.12500000  0.25000000  1.0
  Na  Na75  1  0.12500000  0.12500000  0.37500000  1.0
  Na  Na76  1  0.12500000  0.12500000  0.50000000  1.0
  Na  Na77  1  0.12500000  0.12500000  0.62500000  1.0
  Na  Na78  1  0.12500000  0.12500000  0.75000000  1.0
  Na  Na79  1  0.12500000  0.12500000  0.87500000  1.0
  Na  Na80  1  0.12500000  0.25000000  0.00000000  1.0
  Na  Na81  1  0.12500000  0.25000000  0.12500000  1.0
  Na  Na82  1  0.12500000  0.25000000  0.25000000  1.0
  Na  Na83  1  0.12500000  0.25000000  0.37500000  1.0
  Na  Na84  1  0.12500000  0.25000000  0.50000000  1.0
  Na  Na85  1  0.12500000  0.25000000  0.62500000  1.0
  Na  Na86  1  0.12500000  0.25000000  0.75000000  1.0
  Na  Na87  1  0.12500000  0.25000000  0.87500000  1.0
  Na  Na88  1  0.12500000  0.37500000  0.00000000  1.0
  Na  Na89  1  0.12500000  0.37500000  0.12500000  1.0
  Na  Na90  1  0.12500000  0.37500000  0.25000000  1.0
  Na  Na91  1  0.12500000  0.37500000  0.37500000  1.0
  Na  Na92  1  0.12500000  0.37500000  0.50000000  1.0
  Na  Na93  1  0.12500000  0.37500000  0.62500000  1.0
  Na  Na94  1  0.12500000  0.37500000  0.75000000  1.0
  Na  Na95  1  0.12500000  0.37500000  0.87500000  1.0
  Na  Na96  1  0.12500000  0.50000000  0.00000000  1.0
  Na  Na97  1  0.12500000  0.50000000  0.12500000  1.0
  Na  Na98  1  0.12500000  0.50000000  0.25000000  1.0
  Na  Na99  1  0.12500000  0.50000000  0.37500000  1.0
  Na  Na100  1  0.12500000  0.50000000  0.50000000  1.0
  Na  Na101  1  0.12500000  0.50000000  0.62500000  1.0
  Na  Na102  1  0.12500000  0.50000000  0.75000000  1.0
  Na  Na103  1  0.12500000  0.50000000  0.87500000  1.0
  Na  Na104  1  0.12500000  0.62500000  0.00000000  1.0
  Na  Na105  1  0.12500000  0.62500000  0.12500000  1.0
  Na  Na106  1  0.12500000  0.62500000  0.25000000  1.0
  Na  Na107  1  0.12500000  0.62500000  0.37500000  1.0
  Na  Na108  1  0.12500000  0.62500000  0.50000000  1.0
  Na  Na109  1  0.12500000  0.62500000  0.62500000  1.0
  Na  Na110  1  0.12500000  0.62500000  0.75000000  1.0
  Na  Na111  1  0.12500000  0.62500000  0.87500000  1.0
  Na  Na112  1  0.12500000  0.75000000  0.00000000  1.0
  Na  Na113  1  0.12500000  0.75000000  0.12500000  1.0
  Na  Na114  1  0.12500000  0.75000000  0.25000000  1.0
  Na  Na115  1  0.12500000  0.75000000  0.37500000  1.0
  Na  Na116  1  0.12500000  0.75000000  0.50000000  1.0
  Na  Na117  1  0.12500000  0.75000000  0.62500000  1.0
  Na  Na118  1  0.12500000  0.75000000  0.75000000  1.0
  Na  Na119  1  0.12500000  0.75000000  0.87500000  1.0
  Na  Na120  1  0.12500000  0.87500000  0.00000000  1.0
  Na  Na121  1  0.12500000  0.87500000  0.12500000  1.0
  Na  Na122  1  0.12500000  0.87500000  0.25000000  1.0
  Na  Na123  1  0.12500000  0.87500000  0.37500000  1.0
  Na  Na124  1  0.12500000  0.87500000  0.50000000  1.0
  Na  Na125  1  0.12500000  0.87500000  0.62500000  1.0
  Na  Na126  1  0.12500000  0.87500000  0.75000000  1.0
  Na  Na127  1  0.12500000  0.87500000  0.87500000  1.0
  Na  Na128  1  0.25000000  0.00000000  0.00000000  1.0
  Na  Na129  1  0.25000000  0.00000000  0.12500000  1.0
  Na  Na130  1  0.25000000  0.00000000  0.25000000  1.0
  Na  Na131  1  0.25000000  0.00000000  0.37500000  1.0
  Na  Na132  1  0.25000000  0.00000000  0.50000000  1.0
  Na  Na133  1  0.25000000  0.00000000  0.62500000  1.0
  Na  Na134  1  0.25000000  0.00000000  0.75000000  1.0
  Na  Na135  1  0.25000000  0.00000000  0.87500000  1.0
  Na  Na136  1  0.25000000  0.12500000  0.00000000  1.0
  Na  Na137  1  0.25000000  0.12500000  0.12500000  1.0
  Na  Na138  1  0.25000000  0.12500000  0.25000000  1.0
  Na  Na139  1  0.25000000  0.12500000  0.37500000  1.0
  Na  Na140  1  0.25000000  0.12500000  0.50000000  1.0
  Na  Na141  1  0.25000000  0.12500000  0.62500000  1.0
  Na  Na142  1  0.25000000  0.12500000  0.75000000  1.0
  Na  Na143  1  0.25000000  0.12500000  0.87500000  1.0
  Na  Na144  1  0.25000000  0.25000000  0.00000000  1.0
  Na  Na145  1  0.25000000  0.25000000  0.12500000  1.0
  Na  Na146  1  0.25000000  0.25000000  0.25000000  1.0
  Na  Na147  1  0.25000000  0.25000000  0.37500000  1.0
  Na  Na148  1  0.25000000  0.25000000  0.50000000  1.0
  Na  Na149  1  0.25000000  0.25000000  0.62500000  1.0
  Na  Na150  1  0.25000000  0.25000000  0.75000000  1.0
  Na  Na151  1  0.25000000  0.25000000  0.87500000  1.0
  Na  Na152  1  0.25000000  0.37500000  0.00000000  1.0
  Na  Na153  1  0.25000000  0.37500000  0.12500000  1.0
  Na  Na154  1  0.25000000  0.37500000  0.25000000  1.0
  Na  Na155  1  0.25000000  0.37500000  0.37500000  1.0
  Na  Na156  1  0.25000000  0.37500000  0.50000000  1.0
  Na  Na157  1  0.25000000  0.37500000  0.62500000  1.0
  Na  Na158  1  0.25000000  0.37500000  0.75000000  1.0
  Na  Na159  1  0.25000000  0.37500000  0.87500000  1.0
  Na  Na160  1  0.25000000  0.50000000  0.00000000  1.0
  Na  Na161  1  0.25000000  0.50000000  0.12500000  1.0
  Na  Na162  1  0.25000000  0.50000000  0.25000000  1.0
  Na  Na163  1  0.25000000  0.50000000  0.37500000  1.0
  Na  Na164  1  0.25000000  0.50000000  0.50000000  1.0
  Na  Na165  1  0.25000000  0.50000000  0.62500000  1.0
  Na  Na166  1  0.25000000  0.50000000  0.75000000  1.0
  Na  Na167  1  0.25000000  0.50000000  0.87500000  1.0
  Na  Na168  1  0.25000000  0.62500000  0.00000000  1.0
  Na  Na169  1  0.25000000  0.62500000  0.12500000  1.0
  Na  Na170  1  0.25000000  0.62500000  0.25000000  1.0
  Na  Na171  1  0.25000000  0.62500000  0.37500000  1.0
  Na  Na172  1  0.25000000  0.62500000  0.50000000  1.0
  Na  Na173  1  0.25000000  0.62500000  0.62500000  1.0
  Na  Na174  1  0.25000000  0.62500000  0.75000000  1.0
  Na  Na175  1  0.25000000  0.62500000  0.87500000  1.0
  Na  Na176  1  0.25000000  0.75000000  0.00000000  1.0
  Na  Na177  1  0.25000000  0.75000000  0.12500000  1.0
  Na  Na178  1  0.25000000  0.75000000  0.25000000  1.0
  Na  Na179  1  0.25000000  0.75000000  0.37500000  1.0
  Na  Na180  1  0.25000000  0.75000000  0.50000000  1.0
  Na  Na181  1  0.25000000  0.75000000  0.62500000  1.0
  Na  Na182  1  0.25000000  0.75000000  0.75000000  1.0
  Na  Na183  1  0.25000000  0.75000000  0.87500000  1.0
  Na  Na184  1  0.25000000  0.87500000  0.00000000  1.0
  Na  Na185  1  0.25000000  0.87500000  0.12500000  1.0
  Na  Na186  1  0.25000000  0.87500000  0.25000000  1.0
  Na  Na187  1  0.25000000  0.87500000  0.37500000  1.0
  Na  Na188  1  0.25000000  0.87500000  0.50000000  1.0
  Na  Na189  1  0.25000000  0.87500000  0.62500000  1.0
  Na  Na190  1  0.25000000  0.87500000  0.75000000  1.0
  Na  Na191  1  0.25000000  0.87500000  0.87500000  1.0
  Na  Na192  1  0.37500000  0.00000000  0.00000000  1.0
  Na  Na193  1  0.37500000  0.00000000  0.12500000  1.0
  Na  Na194  1  0.37500000  0.00000000  0.25000000  1.0
  Na  Na195  1  0.37500000  0.00000000  0.37500000  1.0
  Na  Na196  1  0.37500000  0.00000000  0.50000000  1.0
  Na  Na197  1  0.37500000  0.00000000  0.62500000  1.0
  Na  Na198  1  0.37500000  0.00000000  0.75000000  1.0
  Na  Na199  1  0.37500000  0.00000000  0.87500000  1.0
  Na  Na200  1  0.37500000  0.12500000  0.00000000  1.0
  Na  Na201  1  0.37500000  0.12500000  0.12500000  1.0
  Na  Na202  1  0.37500000  0.12500000  0.25000000  1.0
  Na  Na203  1  0.37500000  0.12500000  0.37500000  1.0
  Na  Na204  1  0.37500000  0.12500000  0.50000000  1.0
  Na  Na205  1  0.37500000  0.12500000  0.62500000  1.0
  Na  Na206  1  0.37500000  0.12500000  0.75000000  1.0
  Na  Na207  1  0.37500000  0.12500000  0.87500000  1.0
  Na  Na208  1  0.37500000  0.25000000  0.00000000  1.0
  Na  Na209  1  0.37500000  0.25000000  0.12500000  1.0
  Na  Na210  1  0.37500000  0.25000000  0.25000000  1.0
  Na  Na211  1  0.37500000  0.25000000  0.37500000  1.0
  Na  Na212  1  0.37500000  0.25000000  0.50000000  1.0
  Na  Na213  1  0.37500000  0.25000000  0.62500000  1.0
  Na  Na214  1  0.37500000  0.25000000  0.75000000  1.0
  Na  Na215  1  0.37500000  0.25000000  0.87500000  1.0
  Na  Na216  1  0.37500000  0.37500000  0.00000000  1.0
  Na  Na217  1  0.37500000  0.37500000  0.12500000  1.0
  Na  Na218  1  0.37500000  0.37500000  0.25000000  1.0
  Na  Na219  1  0.37500000  0.37500000  0.37500000  1.0
  Na  Na220  1  0.37500000  0.37500000  0.50000000  1.0
  Na  Na221  1  0.37500000  0.37500000  0.62500000  1.0
  Na  Na222  1  0.37500000  0.37500000  0.75000000  1.0
  Na  Na223  1  0.37500000  0.37500000  0.87500000  1.0
  Na  Na224  1  0.37500000  0.50000000  0.00000000  1.0
  Na  Na225  1  0.37500000  0.50000000  0.12500000  1.0
  Na  Na226  1  0.37500000  0.50000000  0.25000000  1.0
  Na  Na227  1  0.37500000  0.50000000  0.37500000  1.0
  Na  Na228  1  0.37500000  0.50000000  0.50000000  1.0
  Na  Na229  1  0.37500000  0.50000000  0.62500000  1.0
  Na  Na230  1  0.37500000  0.50000000  0.75000000  1.0
  Na  Na231  1  0.37500000  0.50000000  0.87500000  1.0
  Na  Na232  1  0.37500000  0.62500000  0.00000000  1.0
  Na  Na233  1  0.37500000  0.62500000  0.12500000  1.0
  Na  Na234  1  0.37500000  0.62500000  0.25000000  1.0
  Na  Na235  1  0.37500000  0.62500000  0.37500000  1.0
  Na  Na236  1  0.37500000  0.62500000  0.50000000  1.0
  Na  Na237  1  0.37500000  0.62500000  0.62500000  1.0
  Na  Na238  1  0.37500000  0.62500000  0.75000000  1.0
  Na  Na239  1  0.37500000  0.62500000  0.87500000  1.0
  Na  Na240  1  0.37500000  0.75000000  0.00000000  1.0
  Na  Na241  1  0.37500000  0.75000000  0.12500000  1.0
  Na  Na242  1  0.37500000  0.75000000  0.25000000  1.0
  Na  Na243  1  0.37500000  0.75000000  0.37500000  1.0
  Na  Na244  1  0.37500000  0.75000000  0.50000000  1.0
  Na  Na245  1  0.37500000  0.75000000  0.62500000  1.0
  Na  Na246  1  0.37500000  0.75000000  0.75000000  1.0
  Na  Na247  1  0.37500000  0.75000000  0.87500000  1.0
  Na  Na248  1  0.37500000  0.87500000  0.00000000  1.0
  Na  Na249  1  0.37500000  0.87500000  0.12500000  1.0
  Na  Na250  1  0.37500000  0.87500000  0.25000000  1.0
  Na  Na251  1  0.37500000  0.87500000  0.37500000  1.0
  Na  Na252  1  0.37500000  0.87500000  0.50000000  1.0
  Na  Na253  1  0.37500000  0.87500000  0.62500000  1.0
  Na  Na254  1  0.37500000  0.87500000  0.75000000  1.0
  Na  Na255  1  0.37500000  0.87500000  0.87500000  1.0
  Na  Na256  1  0.50000000  0.00000000  0.00000000  1.0
  Na  Na257  1  0.50000000  0.00000000  0.12500000  1.0
  Na  Na258  1  0.50000000  0.00000000  0.25000000  1.0
  Na  Na259  1  0.50000000  0.00000000  0.37500000  1.0
  Na  Na260  1  0.50000000  0.00000000  0.50000000  1.0
  Na  Na261  1  0.50000000  0.00000000  0.62500000  1.0
  Na  Na262  1  0.50000000  0.00000000  0.75000000  1.0
  Na  Na263  1  0.50000000  0.00000000  0.87500000  1.0
  Na  Na264  1  0.50000000  0.12500000  0.00000000  1.0
  Na  Na265  1  0.50000000  0.12500000  0.12500000  1.0
  Na  Na266  1  0.50000000  0.12500000  0.25000000  1.0
  Na  Na267  1  0.50000000  0.12500000  0.37500000  1.0
  Na  Na268  1  0.50000000  0.12500000  0.50000000  1.0
  Na  Na269  1  0.50000000  0.12500000  0.62500000  1.0
  Na  Na270  1  0.50000000  0.12500000  0.75000000  1.0
  Na  Na271  1  0.50000000  0.12500000  0.87500000  1.0
  Na  Na272  1  0.50000000  0.25000000  0.00000000  1.0
  Na  Na273  1  0.50000000  0.25000000  0.12500000  1.0
  Na  Na274  1  0.50000000  0.25000000  0.25000000  1.0
  Na  Na275  1  0.50000000  0.25000000  0.37500000  1.0
  Na  Na276  1  0.50000000  0.25000000  0.50000000  1.0
  Na  Na277  1  0.50000000  0.25000000  0.62500000  1.0
  Na  Na278  1  0.50000000  0.25000000  0.75000000  1.0
  Na  Na279  1  0.50000000  0.25000000  0.87500000  1.0
  Na  Na280  1  0.50000000  0.37500000  0.00000000  1.0
  Na  Na281  1  0.50000000  0.37500000  0.12500000  1.0
  Na  Na282  1  0.50000000  0.37500000  0.25000000  1.0
  Na  Na283  1  0.50000000  0.37500000  0.37500000  1.0
  Na  Na284  1  0.50000000  0.37500000  0.50000000  1.0
  Na  Na285  1  0.50000000  0.37500000  0.62500000  1.0
  Na  Na286  1  0.50000000  0.37500000  0.75000000  1.0
  Na  Na287  1  0.50000000  0.37500000  0.87500000  1.0
  Na  Na288  1  0.50000000  0.50000000  0.00000000  1.0
  Na  Na289  1  0.50000000  0.50000000  0.12500000  1.0
  Na  Na290  1  0.50000000  0.50000000  0.25000000  1.0
  Na  Na291  1  0.50000000  0.50000000  0.37500000  1.0
  Na  Na292  1  0.50000000  0.50000000  0.50000000  1.0
  Na  Na293  1  0.50000000  0.50000000  0.62500000  1.0
  Na  Na294  1  0.50000000  0.50000000  0.75000000  1.0
  Na  Na295  1  0.50000000  0.50000000  0.87500000  1.0
  Na  Na296  1  0.50000000  0.62500000  0.00000000  1.0
  Na  Na297  1  0.50000000  0.62500000  0.12500000  1.0
  Na  Na298  1  0.50000000  0.62500000  0.25000000  1.0
  Na  Na299  1  0.50000000  0.62500000  0.37500000  1.0
  Na  Na300  1  0.50000000  0.62500000  0.50000000  1.0
  Na  Na301  1  0.50000000  0.62500000  0.62500000  1.0
  Na  Na302  1  0.50000000  0.62500000  0.75000000  1.0
  Na  Na303  1  0.50000000  0.62500000  0.87500000  1.0
  Na  Na304  1  0.50000000  0.75000000  0.00000000  1.0
  Na  Na305  1  0.50000000  0.75000000  0.12500000  1.0
  Na  Na306  1  0.50000000  0.75000000  0.25000000  1.0
  Na  Na307  1  0.50000000  0.75000000  0.37500000  1.0
  Na  Na308  1  0.50000000  0.75000000  0.50000000  1.0
  Na  Na309  1  0.50000000  0.75000000  0.62500000  1.0
  Na  Na310  1  0.50000000  0.75000000  0.75000000  1.0
  Na  Na311  1  0.50000000  0.75000000  0.87500000  1.0
  Na  Na312  1  0.50000000  0.87500000  0.00000000  1.0
  Na  Na313  1  0.50000000  0.87500000  0.12500000  1.0
  Na  Na314  1  0.50000000  0.87500000  0.25000000  1.0
  Na  Na315  1  0.50000000  0.87500000  0.37500000  1.0
  Na  Na316  1  0.50000000  0.87500000  0.50000000  1.0
  Na  Na317  1  0.50000000  0.87500000  0.62500000  1.0
  Na  Na318  1  0.50000000  0.87500000  0.75000000  1.0
  Na  Na319  1  0.50000000  0.87500000  0.87500000  1.0
  Na  Na320  1  0.62500000  0.00000000  0.00000000  1.0
  Na  Na321  1  0.62500000  0.00000000  0.12500000  1.0
  Na  Na322  1  0.62500000  0.00000000  0.25000000  1.0
  Na  Na323  1  0.62500000  0.00000000  0.37500000  1.0
  Na  Na324  1  0.62500000  0.00000000  0.50000000  1.0
  Na  Na325  1  0.62500000  0.00000000  0.62500000  1.0
  Na  Na326  1  0.62500000  0.00000000  0.75000000  1.0
  Na  Na327  1  0.62500000  0.00000000  0.87500000  1.0
  Na  Na328  1  0.62500000  0.12500000  0.00000000  1.0
  Na  Na329  1  0.62500000  0.12500000  0.12500000  1.0
  Na  Na330  1  0.62500000  0.12500000  0.25000000  1.0
  Na  Na331  1  0.62500000  0.12500000  0.37500000  1.0
  Na  Na332  1  0.62500000  0.12500000  0.50000000  1.0
  Na  Na333  1  0.62500000  0.12500000  0.62500000  1.0
  Na  Na334  1  0.62500000  0.12500000  0.75000000  1.0
  Na  Na335  1  0.62500000  0.12500000  0.87500000  1.0
  Na  Na336  1  0.62500000  0.25000000  0.00000000  1.0
  Na  Na337  1  0.62500000  0.25000000  0.12500000  1.0
  Na  Na338  1  0.62500000  0.25000000  0.25000000  1.0
  Na  Na339  1  0.62500000  0.25000000  0.37500000  1.0
  Na  Na340  1  0.62500000  0.25000000  0.50000000  1.0
  Na  Na341  1  0.62500000  0.25000000  0.62500000  1.0
  Na  Na342  1  0.62500000  0.25000000  0.75000000  1.0
  Na  Na343  1  0.62500000  0.25000000  0.87500000  1.0
  Na  Na344  1  0.62500000  0.37500000  0.00000000  1.0
  Na  Na345  1  0.62500000  0.37500000  0.12500000  1.0
  Na  Na346  1  0.62500000  0.37500000  0.25000000  1.0
  Na  Na347  1  0.62500000  0.37500000  0.37500000  1.0
  Na  Na348  1  0.62500000  0.37500000  0.50000000  1.0
  Na  Na349  1  0.62500000  0.37500000  0.62500000  1.0
  Na  Na350  1  0.62500000  0.37500000  0.75000000  1.0
  Na  Na351  1  0.62500000  0.37500000  0.87500000  1.0
  Na  Na352  1  0.62500000  0.50000000  0.00000000  1.0
  Na  Na353  1  0.62500000  0.50000000  0.12500000  1.0
  Na  Na354  1  0.62500000  0.50000000  0.25000000  1.0
  Na  Na355  1  0.62500000  0.50000000  0.37500000  1.0
  Na  Na356  1  0.62500000  0.50000000  0.50000000  1.0
  Na  Na357  1  0.62500000  0.50000000  0.62500000  1.0
  Na  Na358  1  0.62500000  0.50000000  0.75000000  1.0
  Na  Na359  1  0.62500000  0.50000000  0.87500000  1.0
  Na  Na360  1  0.62500000  0.62500000  0.00000000  1.0
  Na  Na361  1  0.62500000  0.62500000  0.12500000  1.0
  Na  Na362  1  0.62500000  0.62500000  0.25000000  1.0
  Na  Na363  1  0.62500000  0.62500000  0.37500000  1.0
  Na  Na364  1  0.62500000  0.62500000  0.50000000  1.0
  Na  Na365  1  0.62500000  0.62500000  0.62500000  1.0
  Na  Na366  1  0.62500000  0.62500000  0.75000000  1.0
  Na  Na367  1  0.62500000  0.62500000  0.87500000  1.0
  Na  Na368  1  0.62500000  0.75000000  0.00000000  1.0
  Na  Na369  1  0.62500000  0.75000000  0.12500000  1.0
  Na  Na370  1  0.62500000  0.75000000  0.25000000  1.0
  Na  Na371  1  0.62500000  0.75000000  0.37500000  1.0
  Na  Na372  1  0.62500000  0.75000000  0.50000000  1.0
  Na  Na373  1  0.62500000  0.75000000  0.62500000  1.0
  Na  Na374  1  0.62500000  0.75000000  0.75000000  1.0
  Na  Na375  1  0.62500000  0.75000000  0.87500000  1.0
  Na  Na376  1  0.62500000  0.87500000  0.00000000  1.0
  Na  Na377  1  0.62500000  0.87500000  0.12500000  1.0
  Na  Na378  1  0.62500000  0.87500000  0.25000000  1.0
  Na  Na379  1  0.62500000  0.87500000  0.37500000  1.0
  Na  Na380  1  0.62500000  0.87500000  0.50000000  1.0
  Na  Na381  1  0.62500000  0.87500000  0.62500000  1.0
  Na  Na382  1  0.62500000  0.87500000  0.75000000  1.0
  Na  Na383  1  0.62500000  0.87500000  0.87500000  1.0
  Na  Na384  1  0.75000000  0.00000000  0.00000000  1.0
  Na  Na385  1  0.75000000  0.00000000  0.12500000  1.0
  Na  Na386  1  0.75000000  0.00000000  0.25000000  1.0
  Na  Na387  1  0.75000000  0.00000000  0.37500000  1.0
  Na  Na388  1  0.75000000  0.00000000  0.50000000  1.0
  Na  Na389  1  0.75000000  0.00000000  0.62500000  1.0
  Na  Na390  1  0.75000000  0.00000000  0.75000000  1.0
  Na  Na391  1  0.75000000  0.00000000  0.87500000  1.0
  Na  Na392  1  0.75000000  0.12500000  0.00000000  1.0
  Na  Na393  1  0.75000000  0.12500000  0.12500000  1.0
  Na  Na394  1  0.75000000  0.12500000  0.25000000  1.0
  Na  Na395  1  0.75000000  0.12500000  0.37500000  1.0
  Na  Na396  1  0.75000000  0.12500000  0.50000000  1.0
  Na  Na397  1  0.75000000  0.12500000  0.62500000  1.0
  Na  Na398  1  0.75000000  0.12500000  0.75000000  1.0
  Na  Na399  1  0.75000000  0.12500000  0.87500000  1.0
  Na  Na400  1  0.75000000  0.25000000  0.00000000  1.0
  Na  Na401  1  0.75000000  0.25000000  0.12500000  1.0
  Na  Na402  1  0.75000000  0.25000000  0.25000000  1.0
  Na  Na403  1  0.75000000  0.25000000  0.37500000  1.0
  Na  Na404  1  0.75000000  0.25000000  0.50000000  1.0
  Na  Na405  1  0.75000000  0.25000000  0.62500000  1.0
  Na  Na406  1  0.75000000  0.25000000  0.75000000  1.0
  Na  Na407  1  0.75000000  0.25000000  0.87500000  1.0
  Na  Na408  1  0.75000000  0.37500000  0.00000000  1.0
  Na  Na409  1  0.75000000  0.37500000  0.12500000  1.0
  Na  Na410  1  0.75000000  0.37500000  0.25000000  1.0
  Na  Na411  1  0.75000000  0.37500000  0.37500000  1.0
  Na  Na412  1  0.75000000  0.37500000  0.50000000  1.0
  Na  Na413  1  0.75000000  0.37500000  0.62500000  1.0
  Na  Na414  1  0.75000000  0.37500000  0.75000000  1.0
  Na  Na415  1  0.75000000  0.37500000  0.87500000  1.0
  Na  Na416  1  0.75000000  0.50000000  0.00000000  1.0
  Na  Na417  1  0.75000000  0.50000000  0.12500000  1.0
  Na  Na418  1  0.75000000  0.50000000  0.25000000  1.0
  Na  Na419  1  0.75000000  0.50000000  0.37500000  1.0
  Na  Na420  1  0.75000000  0.50000000  0.50000000  1.0
  Na  Na421  1  0.75000000  0.50000000  0.62500000  1.0
  Na  Na422  1  0.75000000  0.50000000  0.75000000  1.0
  Na  Na423  1  0.75000000  0.50000000  0.87500000  1.0
  Na  Na424  1  0.75000000  0.62500000  0.00000000  1.0
  Na  Na425  1  0.75000000  0.62500000  0.12500000  1.0
  Na  Na426  1  0.75000000  0.62500000  0.25000000  1.0
  Na  Na427  1  0.75000000  0.62500000  0.37500000  1.0
  Na  Na428  1  0.75000000  0.62500000  0.50000000  1.0
  Na  Na429  1  0.75000000  0.62500000  0.62500000  1.0
  Na  Na430  1  0.75000000  0.62500000  0.75000000  1.0
  Na  Na431  1  0.75000000  0.62500000  0.87500000  1.0
  Na  Na432  1  0.75000000  0.75000000  0.00000000  1.0
  Na  Na433  1  0.75000000  0.75000000  0.12500000  1.0
  Na  Na434  1  0.75000000  0.75000000  0.25000000  1.0
  Na  Na435  1  0.75000000  0.75000000  0.37500000  1.0
  Na  Na436  1  0.75000000  0.75000000  0.50000000  1.0
  Na  Na437  1  0.75000000  0.75000000  0.62500000  1.0
  Na  Na438  1  0.75000000  0.75000000  0.75000000  1.0
  Na  Na439  1  0.75000000  0.75000000  0.87500000  1.0
  Na  Na440  1  0.75000000  0.87500000  0.00000000  1.0
  Na  Na441  1  0.75000000  0.87500000  0.12500000  1.0
  Na  Na442  1  0.75000000  0.87500000  0.25000000  1.0
  Na  Na443  1  0.75000000  0.87500000  0.37500000  1.0
  Na  Na444  1  0.75000000  0.87500000  0.50000000  1.0
  Na  Na445  1  0.75000000  0.87500000  0.62500000  1.0
  Na  Na446  1  0.75000000  0.87500000  0.75000000  1.0
  Na  Na447  1  0.75000000  0.87500000  0.87500000  1.0
  Na  Na448  1  0.87500000  0.00000000  0.00000000  1.0
  Na  Na449  1  0.87500000  0.00000000  0.12500000  1.0
  Na  Na450  1  0.87500000  0.00000000  0.25000000  1.0
  Na  Na451  1  0.87500000  0.00000000  0.37500000  1.0
  Na  Na452  1  0.87500000  0.00000000  0.50000000  1.0
  Na  Na453  1  0.87500000  0.00000000  0.62500000  1.0
  Na  Na454  1  0.87500000  0.00000000  0.75000000  1.0
  Na  Na455  1  0.87500000  0.00000000  0.87500000  1.0
  Na  Na456  1  0.87500000  0.12500000  0.00000000  1.0
  Na  Na457  1  0.87500000  0.12500000  0.12500000  1.0
  Na  Na458  1  0.87500000  0.12500000  0.25000000  1.0
  Na  Na459  1  0.87500000  0.12500000  0.37500000  1.0
  Na  Na460  1  0.87500000  0.12500000  0.50000000  1.0
  Na  Na461  1  0.87500000  0.12500000  0.62500000  1.0
  Na  Na462  1  0.87500000  0.12500000  0.75000000  1.0
  Na  Na463  1  0.87500000  0.12500000  0.87500000  1.0
  Na  Na464  1  0.87500000  0.25000000  1.00000000  1.0
  Na  Na465  1  0.87500000  0.25000000  0.12500000  1.0
  Na  Na466  1  0.87500000  0.25000000  0.25000000  1.0
  Na  Na467  1  0.87500000  0.25000000  0.37500000  1.0
  Na  Na468  1  0.87500000  0.25000000  0.50000000  1.0
  Na  Na469  1  0.87500000  0.25000000  0.62500000  1.0
  Na  Na470  1  0.87500000  0.25000000  0.75000000  1.0
  Na  Na471  1  0.87500000  0.25000000  0.87500000  1.0
  Na  Na472  1  0.87500000  0.37500000  0.00000000  1.0
  Na  Na473  1  0.87500000  0.37500000  0.12500000  1.0
  Na  Na474  1  0.87500000  0.37500000  0.25000000  1.0
  Na  Na475  1  0.87500000  0.37500000  0.37500000  1.0
  Na  Na476  1  0.87500000  0.37500000  0.50000000  1.0
  Na  Na477  1  0.87500000  0.37500000  0.62500000  1.0
  Na  Na478  1  0.87500000  0.37500000  0.75000000  1.0
  Na  Na479  1  0.87500000  0.37500000  0.87500000  1.0
  Na  Na480  1  0.87500000  0.50000000  0.00000000  1.0
  Na  Na481  1  0.87500000  0.50000000  0.12500000  1.0
  Na  Na482  1  0.87500000  0.50000000  0.25000000  1.0
  Na  Na483  1  0.87500000  0.50000000  0.37500000  1.0
  Na  Na484  1  0.87500000  0.50000000  0.50000000  1.0
  Na  Na485  1  0.87500000  0.50000000  0.62500000  1.0
  Na  Na486  1  0.87500000  0.50000000  0.75000000  1.0
  Na  Na487  1  0.87500000  0.50000000  0.87500000  1.0
  Na  Na488  1  0.87500000  0.62500000  0.00000000  1.0
  Na  Na489  1  0.87500000  0.62500000  0.12500000  1.0
  Na  Na490  1  0.87500000  0.62500000  0.25000000  1.0
  Na  Na491  1  0.87500000  0.62500000  0.37500000  1.0
  Na  Na492  1  0.87500000  0.62500000  0.50000000  1.0
  Na  Na493  1  0.87500000  0.62500000  0.62500000  1.0
  Na  Na494  1  0.87500000  0.62500000  0.75000000  1.0
  Na  Na495  1  0.87500000  0.62500000  0.87500000  1.0
  Na  Na496  1  0.87500000  0.75000000  0.00000000  1.0
  Na  Na497  1  0.87500000  0.75000000  0.12500000  1.0
  Na  Na498  1  0.87500000  0.75000000  0.25000000  1.0
  Na  Na499  1  0.87500000  0.75000000  0.37500000  1.0
  Na  Na500  1  0.87500000  0.75000000  0.50000000  1.0
  Na  Na501  1  0.87500000  0.75000000  0.62500000  1.0
  Na  Na502  1  0.87500000  0.75000000  0.75000000  1.0
  Na  Na503  1  0.87500000  0.75000000  0.87500000  1.0
  Na  Na504  1  0.87500000  0.87500000  1.00000000  1.0
  Na  Na505  1  0.87500000  0.87500000  0.12500000  1.0
  Na  Na506  1  0.87500000  0.87500000  0.25000000  1.0
  Na  Na507  1  0.87500000  0.87500000  0.37500000  1.0
  Na  Na508  1  0.87500000  0.87500000  0.50000000  1.0
  Na  Na509  1  0.87500000  0.87500000  0.62500000  1.0
  Na  Na510  1  0.87500000  0.87500000  0.75000000  1.0
  Na  Na511  1  0.87500000  0.87500000  0.87500000  1.0
  Cl  Cl512  1  0.06250000  0.06250000  0.06250000  1.0
  Cl  Cl513  1  0.06250000  0.06250000  0.18750000  1.0
  Cl  Cl514  1  0.06250000  0.06250000  0.31250000  1.0
  Cl  Cl515  1  0.06250000  0.06250000  0.43750000  1.0
  Cl  Cl516  1  0.06250000  0.06250000  0.56250000  1.0
  Cl  Cl517  1  0.06250000  0.06250000  0.68750000  1.0
  Cl  Cl518  1  0.06250000  0.06250000  0.81250000  1.0
  Cl  Cl519  1  0.06250000  0.06250000  0.93750000  1.0
  Cl  Cl520  1  0.06250000  0.18750000  0.06250000  1.0
  Cl  Cl521  1  0.06250000  0.18750000  0.18750000  1.0
  Cl  Cl522  1  0.06250000  0.18750000  0.31250000  1.0
  Cl  Cl523  1  0.06250000  0.18750000  0.43750000  1.0
  Cl  Cl524  1  0.06250000  0.18750000  0.56250000  1.0
  Cl  Cl525  1  0.06250000  0.18750000  0.68750000  1.0
  Cl  Cl526  1  0.06250000  0.18750000  0.81250000  1.0
  Cl  Cl527  1  0.06250000  0.18750000  0.93750000  1.0
  Cl  Cl528  1  0.06250000  0.31250000  0.06250000  1.0
  Cl  Cl529  1  0.06250000  0.31250000  0.18750000  1.0
  Cl  Cl530  1  0.06250000  0.31250000  0.31250000  1.0
  Cl  Cl531  1  0.06250000  0.31250000  0.43750000  1.0
  Cl  Cl532  1  0.06250000  0.31250000  0.56250000  1.0
  Cl  Cl533  1  0.06250000  0.31250000  0.68750000  1.0
  Cl  Cl534  1  0.06250000  0.31250000  0.81250000  1.0
  Cl  Cl535  1  0.06250000  0.31250000  0.93750000  1.0
  Cl  Cl536  1  0.06250000  0.43750000  0.06250000  1.0
  Cl  Cl537  1  0.06250000  0.43750000  0.18750000  1.0
  Cl  Cl538  1  0.06250000  0.43750000  0.31250000  1.0
  Cl  Cl539  1  0.06250000  0.43750000  0.43750000  1.0
  Cl  Cl540  1  0.06250000  0.43750000  0.56250000  1.0
  Cl  Cl541  1  0.06250000  0.43750000  0.68750000  1.0
  Cl  Cl542  1  0.06250000  0.43750000  0.81250000  1.0
  Cl  Cl543  1  0.06250000  0.43750000  0.93750000  1.0
  Cl  Cl544  1  0.06250000  0.56250000  0.06250000  1.0
  Cl  Cl545  1  0.06250000  0.56250000  0.18750000  1.0
  Cl  Cl546  1  0.06250000  0.56250000  0.31250000  1.0
  Cl  Cl547  1  0.06250000  0.56250000  0.43750000  1.0
  Cl  Cl548  1  0.06250000  0.56250000  0.56250000  1.0
  Cl  Cl549  1  0.06250000  0.56250000  0.68750000  1.0
  Cl  Cl550  1  0.06250000  0.56250000  0.81250000  1.0
  Cl  Cl551  1  0.06250000  0.56250000  0.93750000  1.0
  Cl  Cl552  1  0.06250000  0.68750000  0.06250000  1.0
  Cl  Cl553  1  0.06250000  0.68750000  0.18750000  1.0
  Cl  Cl554  1  0.06250000  0.68750000  0.31250000  1.0
  Cl  Cl555  1  0.06250000  0.68750000  0.43750000  1.0
  Cl  Cl556  1  0.06250000  0.68750000  0.56250000  1.0
  Cl  Cl557  1  0.06250000  0.68750000  0.68750000  1.0
  Cl  Cl558  1  0.06250000  0.68750000  0.81250000  1.0
  Cl  Cl559  1  0.06250000  0.68750000  0.93750000  1.0
  Cl  Cl560  1  0.06250000  0.81250000  0.06250000  1.0
  Cl  Cl561  1  0.06250000  0.81250000  0.18750000  1.0
  Cl  Cl562  1  0.06250000  0.81250000  0.31250000  1.0
  Cl  Cl563  1  0.06250000  0.81250000  0.43750000  1.0
  Cl  Cl564  1  0.06250000  0.81250000  0.56250000  1.0
  Cl  Cl565  1  0.06250000  0.81250000  0.68750000  1.0
  Cl  Cl566  1  0.06250000  0.81250000  0.81250000  1.0
  Cl  Cl567  1  0.06250000  0.81250000  0.93750000  1.0
  Cl  Cl568  1  0.06250000  0.93750000  0.06250000  1.0
  Cl  Cl569  1  0.06250000  0.93750000  0.18750000  1.0
  Cl  Cl570  1  0.06250000  0.93750000  0.31250000  1.0
  Cl  Cl571  1  0.06250000  0.93750000  0.43750000  1.0
  Cl  Cl572  1  0.06250000  0.93750000  0.56250000  1.0
  Cl  Cl573  1  0.06250000  0.93750000  0.68750000  1.0
  Cl  Cl574  1  0.06250000  0.93750000  0.81250000  1.0
  Cl  Cl575  1  0.06250000  0.93750000  0.93750000  1.0
  Cl  Cl576  1  0.18750000  0.06250000  0.06250000  1.0
  Cl  Cl577  1  0.18750000  0.06250000  0.18750000  1.0
  Cl  Cl578  1  0.18750000  0.06250000  0.31250000  1.0
  Cl  Cl579  1  0.18750000  0.06250000  0.43750000  1.0
  Cl  Cl580  1  0.18750000  0.06250000  0.56250000  1.0
  Cl  Cl581  1  0.18750000  0.06250000  0.68750000  1.0
  Cl  Cl582  1  0.18750000  0.06250000  0.81250000  1.0
  Cl  Cl583  1  0.18750000  0.06250000  0.93750000  1.0
  Cl  Cl584  1  0.18750000  0.18750000  0.06250000  1.0
  Cl  Cl585  1  0.18750000  0.18750000  0.18750000  1.0
  Cl  Cl586  1  0.18750000  0.18750000  0.31250000  1.0
  Cl  Cl587  1  0.18750000  0.18750000  0.43750000  1.0
  Cl  Cl588  1  0.18750000  0.18750000  0.56250000  1.0
  Cl  Cl589  1  0.18750000  0.18750000  0.68750000  1.0
  Cl  Cl590  1  0.18750000  0.18750000  0.81250000  1.0
  Cl  Cl591  1  0.18750000  0.18750000  0.93750000  1.0
  Cl  Cl592  1  0.18750000  0.31250000  0.06250000  1.0
  Cl  Cl593  1  0.18750000  0.31250000  0.18750000  1.0
  Cl  Cl594  1  0.18750000  0.31250000  0.31250000  1.0
  Cl  Cl595  1  0.18750000  0.31250000  0.43750000  1.0
  Cl  Cl596  1  0.18750000  0.31250000  0.56250000  1.0
  Cl  Cl597  1  0.18750000  0.31250000  0.68750000  1.0
  Cl  Cl598  1  0.18750000  0.31250000  0.81250000  1.0
  Cl  Cl599  1  0.18750000  0.31250000  0.93750000  1.0
  Cl  Cl600  1  0.18750000  0.43750000  0.06250000  1.0
  Cl  Cl601  1  0.18750000  0.43750000  0.18750000  1.0
  Cl  Cl602  1  0.18750000  0.43750000  0.31250000  1.0
  Cl  Cl603  1  0.18750000  0.43750000  0.43750000  1.0
  Cl  Cl604  1  0.18750000  0.43750000  0.56250000  1.0
  Cl  Cl605  1  0.18750000  0.43750000  0.68750000  1.0
  Cl  Cl606  1  0.18750000  0.43750000  0.81250000  1.0
  Cl  Cl607  1  0.18750000  0.43750000  0.93750000  1.0
  Cl  Cl608  1  0.18750000  0.56250000  0.06250000  1.0
  Cl  Cl609  1  0.18750000  0.56250000  0.18750000  1.0
  Cl  Cl610  1  0.18750000  0.56250000  0.31250000  1.0
  Cl  Cl611  1  0.18750000  0.56250000  0.43750000  1.0
  Cl  Cl612  1  0.18750000  0.56250000  0.56250000  1.0
  Cl  Cl613  1  0.18750000  0.56250000  0.68750000  1.0
  Cl  Cl614  1  0.18750000  0.56250000  0.81250000  1.0
  Cl  Cl615  1  0.18750000  0.56250000  0.93750000  1.0
  Cl  Cl616  1  0.18750000  0.68750000  0.06250000  1.0
  Cl  Cl617  1  0.18750000  0.68750000  0.18750000  1.0
  Cl  Cl618  1  0.18750000  0.68750000  0.31250000  1.0
  Cl  Cl619  1  0.18750000  0.68750000  0.43750000  1.0
  Cl  Cl620  1  0.18750000  0.68750000  0.56250000  1.0
  Cl  Cl621  1  0.18750000  0.68750000  0.68750000  1.0
  Cl  Cl622  1  0.18750000  0.68750000  0.81250000  1.0
  Cl  Cl623  1  0.18750000  0.68750000  0.93750000  1.0
  Cl  Cl624  1  0.18750000  0.81250000  0.06250000  1.0
  Cl  Cl625  1  0.18750000  0.81250000  0.18750000  1.0
  Cl  Cl626  1  0.18750000  0.81250000  0.31250000  1.0
  Cl  Cl627  1  0.18750000  0.81250000  0.43750000  1.0
  Cl  Cl628  1  0.18750000  0.81250000  0.56250000  1.0
  Cl  Cl629  1  0.18750000  0.81250000  0.68750000  1.0
  Cl  Cl630  1  0.18750000  0.81250000  0.81250000  1.0
  Cl  Cl631  1  0.18750000  0.81250000  0.93750000  1.0
  Cl  Cl632  1  0.18750000  0.93750000  0.06250000  1.0
  Cl  Cl633  1  0.18750000  0.93750000  0.18750000  1.0
  Cl  Cl634  1  0.18750000  0.93750000  0.31250000  1.0
  Cl  Cl635  1  0.18750000  0.93750000  0.43750000  1.0
  Cl  Cl636  1  0.18750000  0.93750000  0.56250000  1.0
  Cl  Cl637  1  0.18750000  0.93750000  0.68750000  1.0
  Cl  Cl638  1  0.18750000  0.93750000  0.81250000  1.0
  Cl  Cl639  1  0.18750000  0.93750000  0.93750000  1.0
  Cl  Cl640  1  0.31250000  0.06250000  0.06250000  1.0
  Cl  Cl641  1  0.31250000  0.06250000  0.18750000  1.0
  Cl  Cl642  1  0.31250000  0.06250000  0.31250000  1.0
  Cl  Cl643  1  0.31250000  0.06250000  0.43750000  1.0
  Cl  Cl644  1  0.31250000  0.06250000  0.56250000  1.0
  Cl  Cl645  1  0.31250000  0.06250000  0.68750000  1.0
  Cl  Cl646  1  0.31250000  0.06250000  0.81250000  1.0
  Cl  Cl647  1  0.31250000  0.06250000  0.93750000  1.0
  Cl  Cl648  1  0.31250000  0.18750000  0.06250000  1.0
  Cl  Cl649  1  0.31250000  0.18750000  0.18750000  1.0
  Cl  Cl650  1  0.31250000  0.18750000  0.31250000  1.0
  Cl  Cl651  1  0.31250000  0.18750000  0.43750000  1.0
  Cl  Cl652  1  0.31250000  0.18750000  0.56250000  1.0
  Cl  Cl653  1  0.31250000  0.18750000  0.68750000  1.0
  Cl  Cl654  1  0.31250000  0.18750000  0.81250000  1.0
  Cl  Cl655  1  0.31250000  0.18750000  0.93750000  1.0
  Cl  Cl656  1  0.31250000  0.31250000  0.06250000  1.0
  Cl  Cl657  1  0.31250000  0.31250000  0.18750000  1.0
  Cl  Cl658  1  0.31250000  0.31250000  0.31250000  1.0
  Cl  Cl659  1  0.31250000  0.31250000  0.43750000  1.0
  Cl  Cl660  1  0.31250000  0.31250000  0.56250000  1.0
  Cl  Cl661  1  0.31250000  0.31250000  0.68750000  1.0
  Cl  Cl662  1  0.31250000  0.31250000  0.81250000  1.0
  Cl  Cl663  1  0.31250000  0.31250000  0.93750000  1.0
  Cl  Cl664  1  0.31250000  0.43750000  0.06250000  1.0
  Cl  Cl665  1  0.31250000  0.43750000  0.18750000  1.0
  Cl  Cl666  1  0.31250000  0.43750000  0.31250000  1.0
  Cl  Cl667  1  0.31250000  0.43750000  0.43750000  1.0
  Cl  Cl668  1  0.31250000  0.43750000  0.56250000  1.0
  Cl  Cl669  1  0.31250000  0.43750000  0.68750000  1.0
  Cl  Cl670  1  0.31250000  0.43750000  0.81250000  1.0
  Cl  Cl671  1  0.31250000  0.43750000  0.93750000  1.0
  Cl  Cl672  1  0.31250000  0.56250000  0.06250000  1.0
  Cl  Cl673  1  0.31250000  0.56250000  0.18750000  1.0
  Cl  Cl674  1  0.31250000  0.56250000  0.31250000  1.0
  Cl  Cl675  1  0.31250000  0.56250000  0.43750000  1.0
  Cl  Cl676  1  0.31250000  0.56250000  0.56250000  1.0
  Cl  Cl677  1  0.31250000  0.56250000  0.68750000  1.0
  Cl  Cl678  1  0.31250000  0.56250000  0.81250000  1.0
  Cl  Cl679  1  0.31250000  0.56250000  0.93750000  1.0
  Cl  Cl680  1  0.31250000  0.68750000  0.06250000  1.0
  Cl  Cl681  1  0.31250000  0.68750000  0.18750000  1.0
  Cl  Cl682  1  0.31250000  0.68750000  0.31250000  1.0
  Cl  Cl683  1  0.31250000  0.68750000  0.43750000  1.0
  Cl  Cl684  1  0.31250000  0.68750000  0.56250000  1.0
  Cl  Cl685  1  0.31250000  0.68750000  0.68750000  1.0
  Cl  Cl686  1  0.31250000  0.68750000  0.81250000  1.0
  Cl  Cl687  1  0.31250000  0.68750000  0.93750000  1.0
  Cl  Cl688  1  0.31250000  0.81250000  0.06250000  1.0
  Cl  Cl689  1  0.31250000  0.81250000  0.18750000  1.0
  Cl  Cl690  1  0.31250000  0.81250000  0.31250000  1.0
  Cl  Cl691  1  0.31250000  0.81250000  0.43750000  1.0
  Cl  Cl692  1  0.31250000  0.81250000  0.56250000  1.0
  Cl  Cl693  1  0.31250000  0.81250000  0.68750000  1.0
  Cl  Cl694  1  0.31250000  0.81250000  0.81250000  1.0
  Cl  Cl695  1  0.31250000  0.81250000  0.93750000  1.0
  Cl  Cl696  1  0.31250000  0.93750000  0.06250000  1.0
  Cl  Cl697  1  0.31250000  0.93750000  0.18750000  1.0
  Cl  Cl698  1  0.31250000  0.93750000  0.31250000  1.0
  Cl  Cl699  1  0.31250000  0.93750000  0.43750000  1.0
  Cl  Cl700  1  0.31250000  0.93750000  0.56250000  1.0
  Cl  Cl701  1  0.31250000  0.93750000  0.68750000  1.0
  Cl  Cl702  1  0.31250000  0.93750000  0.81250000  1.0
  Cl  Cl703  1  0.31250000  0.93750000  0.93750000  1.0
  Cl  Cl704  1  0.43750000  0.06250000  0.06250000  1.0
  Cl  Cl705  1  0.43750000  0.06250000  0.18750000  1.0
  Cl  Cl706  1  0.43750000  0.06250000  0.31250000  1.0
  Cl  Cl707  1  0.43750000  0.06250000  0.43750000  1.0
  Cl  Cl708  1  0.43750000  0.06250000  0.56250000  1.0
  Cl  Cl709  1  0.43750000  0.06250000  0.68750000  1.0
  Cl  Cl710  1  0.43750000  0.06250000  0.81250000  1.0
  Cl  Cl711  1  0.43750000  0.06250000  0.93750000  1.0
  Cl  Cl712  1  0.43750000  0.18750000  0.06250000  1.0
  Cl  Cl713  1  0.43750000  0.18750000  0.18750000  1.0
  Cl  Cl714  1  0.43750000  0.18750000  0.31250000  1.0
  Cl  Cl715  1  0.43750000  0.18750000  0.43750000  1.0
  Cl  Cl716  1  0.43750000  0.18750000  0.56250000  1.0
  Cl  Cl717  1  0.43750000  0.18750000  0.68750000  1.0
  Cl  Cl718  1  0.43750000  0.18750000  0.81250000  1.0
  Cl  Cl719  1  0.43750000  0.18750000  0.93750000  1.0
  Cl  Cl720  1  0.43750000  0.31250000  0.06250000  1.0
  Cl  Cl721  1  0.43750000  0.31250000  0.18750000  1.0
  Cl  Cl722  1  0.43750000  0.31250000  0.31250000  1.0
  Cl  Cl723  1  0.43750000  0.31250000  0.43750000  1.0
  Cl  Cl724  1  0.43750000  0.31250000  0.56250000  1.0
  Cl  Cl725  1  0.43750000  0.31250000  0.68750000  1.0
  Cl  Cl726  1  0.43750000  0.31250000  0.81250000  1.0
  Cl  Cl727  1  0.43750000  0.31250000  0.93750000  1.0
  Cl  Cl728  1  0.43750000  0.43750000  0.06250000  1.0
  Cl  Cl729  1  0.43750000  0.43750000  0.18750000  1.0
  Cl  Cl730  1  0.43750000  0.43750000  0.31250000  1.0
  Cl  Cl731  1  0.43750000  0.43750000  0.43750000  1.0
  Cl  Cl732  1  0.43750000  0.43750000  0.56250000  1.0
  Cl  Cl733  1  0.43750000  0.43750000  0.68750000  1.0
  Cl  Cl734  1  0.43750000  0.43750000  0.81250000  1.0
  Cl  Cl735  1  0.43750000  0.43750000  0.93750000  1.0
  Cl  Cl736  1  0.43750000  0.56250000  0.06250000  1.0
  Cl  Cl737  1  0.43750000  0.56250000  0.18750000  1.0
  Cl  Cl738  1  0.43750000  0.56250000  0.31250000  1.0
  Cl  Cl739  1  0.43750000  0.56250000  0.43750000  1.0
  Cl  Cl740  1  0.43750000  0.56250000  0.56250000  1.0
  Cl  Cl741  1  0.43750000  0.56250000  0.68750000  1.0
  Cl  Cl742  1  0.43750000  0.56250000  0.81250000  1.0
  Cl  Cl743  1  0.43750000  0.56250000  0.93750000  1.0
  Cl  Cl744  1  0.43750000  0.68750000  0.06250000  1.0
  Cl  Cl745  1  0.43750000  0.68750000  0.18750000  1.0
  Cl  Cl746  1  0.43750000  0.68750000  0.31250000  1.0
  Cl  Cl747  1  0.43750000  0.68750000  0.43750000  1.0
  Cl  Cl748  1  0.43750000  0.68750000  0.56250000  1.0
  Cl  Cl749  1  0.43750000  0.68750000  0.68750000  1.0
  Cl  Cl750  1  0.43750000  0.68750000  0.81250000  1.0
  Cl  Cl751  1  0.43750000  0.68750000  0.93750000  1.0
  Cl  Cl752  1  0.43750000  0.81250000  0.06250000  1.0
  Cl  Cl753  1  0.43750000  0.81250000  0.18750000  1.0
  Cl  Cl754  1  0.43750000  0.81250000  0.31250000  1.0
  Cl  Cl755  1  0.43750000  0.81250000  0.43750000  1.0
  Cl  Cl756  1  0.43750000  0.81250000  0.56250000  1.0
  Cl  Cl757  1  0.43750000  0.81250000  0.68750000  1.0
  Cl  Cl758  1  0.43750000  0.81250000  0.81250000  1.0
  Cl  Cl759  1  0.43750000  0.81250000  0.93750000  1.0
  Cl  Cl760  1  0.43750000  0.93750000  0.06250000  1.0
  Cl  Cl761  1  0.43750000  0.93750000  0.18750000  1.0
  Cl  Cl762  1  0.43750000  0.93750000  0.31250000  1.0
  Cl  Cl763  1  0.43750000  0.93750000  0.43750000  1.0
  Cl  Cl764  1  0.43750000  0.93750000  0.56250000  1.0
  Cl  Cl765  1  0.43750000  0.93750000  0.68750000  1.0
  Cl  Cl766  1  0.43750000  0.93750000  0.81250000  1.0
  Cl  Cl767  1  0.43750000  0.93750000  0.93750000  1.0
  Cl  Cl768  1  0.56250000  0.06250000  0.06250000  1.0
  Cl  Cl769  1  0.56250000  0.06250000  0.18750000  1.0
  Cl  Cl770  1  0.56250000  0.06250000  0.31250000  1.0
  Cl  Cl771  1  0.56250000  0.06250000  0.43750000  1.0
  Cl  Cl772  1  0.56250000  0.06250000  0.56250000  1.0
  Cl  Cl773  1  0.56250000  0.06250000  0.68750000  1.0
  Cl  Cl774  1  0.56250000  0.06250000  0.81250000  1.0
  Cl  Cl775  1  0.56250000  0.06250000  0.93750000  1.0
  Cl  Cl776  1  0.56250000  0.18750000  0.06250000  1.0
  Cl  Cl777  1  0.56250000  0.18750000  0.18750000  1.0
  Cl  Cl778  1  0.56250000  0.18750000  0.31250000  1.0
  Cl  Cl779  1  0.56250000  0.18750000  0.43750000  1.0
  Cl  Cl780  1  0.56250000  0.18750000  0.56250000  1.0
  Cl  Cl781  1  0.56250000  0.18750000  0.68750000  1.0
  Cl  Cl782  1  0.56250000  0.18750000  0.81250000  1.0
  Cl  Cl783  1  0.56250000  0.18750000  0.93750000  1.0
  Cl  Cl784  1  0.56250000  0.31250000  0.06250000  1.0
  Cl  Cl785  1  0.56250000  0.31250000  0.18750000  1.0
  Cl  Cl786  1  0.56250000  0.31250000  0.31250000  1.0
  Cl  Cl787  1  0.56250000  0.31250000  0.43750000  1.0
  Cl  Cl788  1  0.56250000  0.31250000  0.56250000  1.0
  Cl  Cl789  1  0.56250000  0.31250000  0.68750000  1.0
  Cl  Cl790  1  0.56250000  0.31250000  0.81250000  1.0
  Cl  Cl791  1  0.56250000  0.31250000  0.93750000  1.0
  Cl  Cl792  1  0.56250000  0.43750000  0.06250000  1.0
  Cl  Cl793  1  0.56250000  0.43750000  0.18750000  1.0
  Cl  Cl794  1  0.56250000  0.43750000  0.31250000  1.0
  Cl  Cl795  1  0.56250000  0.43750000  0.43750000  1.0
  Cl  Cl796  1  0.56250000  0.43750000  0.56250000  1.0
  Cl  Cl797  1  0.56250000  0.43750000  0.68750000  1.0
  Cl  Cl798  1  0.56250000  0.43750000  0.81250000  1.0
  Cl  Cl799  1  0.56250000  0.43750000  0.93750000  1.0
  Cl  Cl800  1  0.56250000  0.56250000  0.06250000  1.0
  Cl  Cl801  1  0.56250000  0.56250000  0.18750000  1.0
  Cl  Cl802  1  0.56250000  0.56250000  0.31250000  1.0
  Cl  Cl803  1  0.56250000  0.56250000  0.43750000  1.0
  Cl  Cl804  1  0.56250000  0.56250000  0.56250000  1.0
  Cl  Cl805  1  0.56250000  0.56250000  0.68750000  1.0
  Cl  Cl806  1  0.56250000  0.56250000  0.81250000  1.0
  Cl  Cl807  1  0.56250000  0.56250000  0.93750000  1.0
  Cl  Cl808  1  0.56250000  0.68750000  0.06250000  1.0
  Cl  Cl809  1  0.56250000  0.68750000  0.18750000  1.0
  Cl  Cl810  1  0.56250000  0.68750000  0.31250000  1.0
  Cl  Cl811  1  0.56250000  0.68750000  0.43750000  1.0
  Cl  Cl812  1  0.56250000  0.68750000  0.56250000  1.0
  Cl  Cl813  1  0.56250000  0.68750000  0.68750000  1.0
  Cl  Cl814  1  0.56250000  0.68750000  0.81250000  1.0
  Cl  Cl815  1  0.56250000  0.68750000  0.93750000  1.0
  Cl  Cl816  1  0.56250000  0.81250000  0.06250000  1.0
  Cl  Cl817  1  0.56250000  0.81250000  0.18750000  1.0
  Cl  Cl818  1  0.56250000  0.81250000  0.31250000  1.0
  Cl  Cl819  1  0.56250000  0.81250000  0.43750000  1.0
  Cl  Cl820  1  0.56250000  0.81250000  0.56250000  1.0
  Cl  Cl821  1  0.56250000  0.81250000  0.68750000  1.0
  Cl  Cl822  1  0.56250000  0.81250000  0.81250000  1.0
  Cl  Cl823  1  0.56250000  0.81250000  0.93750000  1.0
  Cl  Cl824  1  0.56250000  0.93750000  0.06250000  1.0
  Cl  Cl825  1  0.56250000  0.93750000  0.18750000  1.0
  Cl  Cl826  1  0.56250000  0.93750000  0.31250000  1.0
  Cl  Cl827  1  0.56250000  0.93750000  0.43750000  1.0
  Cl  Cl828  1  0.56250000  0.93750000  0.56250000  1.0
  Cl  Cl829  1  0.56250000  0.93750000  0.68750000  1.0
  Cl  Cl830  1  0.56250000  0.93750000  0.81250000  1.0
  Cl  Cl831  1  0.56250000  0.93750000  0.93750000  1.0
  Cl  Cl832  1  0.68750000  0.06250000  0.06250000  1.0
  Cl  Cl833  1  0.68750000  0.06250000  0.18750000  1.0
  Cl  Cl834  1  0.68750000  0.06250000  0.31250000  1.0
  Cl  Cl835  1  0.68750000  0.06250000  0.43750000  1.0
  Cl  Cl836  1  0.68750000  0.06250000  0.56250000  1.0
  Cl  Cl837  1  0.68750000  0.06250000  0.68750000  1.0
  Cl  Cl838  1  0.68750000  0.06250000  0.81250000  1.0
  Cl  Cl839  1  0.68750000  0.06250000  0.93750000  1.0
  Cl  Cl840  1  0.68750000  0.18750000  0.06250000  1.0
  Cl  Cl841  1  0.68750000  0.18750000  0.18750000  1.0
  Cl  Cl842  1  0.68750000  0.18750000  0.31250000  1.0
  Cl  Cl843  1  0.68750000  0.18750000  0.43750000  1.0
  Cl  Cl844  1  0.68750000  0.18750000  0.56250000  1.0
  Cl  Cl845  1  0.68750000  0.18750000  0.68750000  1.0
  Cl  Cl846  1  0.68750000  0.18750000  0.81250000  1.0
  Cl  Cl847  1  0.68750000  0.18750000  0.93750000  1.0
  Cl  Cl848  1  0.68750000  0.31250000  0.06250000  1.0
  Cl  Cl849  1  0.68750000  0.31250000  0.18750000  1.0
  Cl  Cl850  1  0.68750000  0.31250000  0.31250000  1.0
  Cl  Cl851  1  0.68750000  0.31250000  0.43750000  1.0
  Cl  Cl852  1  0.68750000  0.31250000  0.56250000  1.0
  Cl  Cl853  1  0.68750000  0.31250000  0.68750000  1.0
  Cl  Cl854  1  0.68750000  0.31250000  0.81250000  1.0
  Cl  Cl855  1  0.68750000  0.31250000  0.93750000  1.0
  Cl  Cl856  1  0.68750000  0.43750000  0.06250000  1.0
  Cl  Cl857  1  0.68750000  0.43750000  0.18750000  1.0
  Cl  Cl858  1  0.68750000  0.43750000  0.31250000  1.0
  Cl  Cl859  1  0.68750000  0.43750000  0.43750000  1.0
  Cl  Cl860  1  0.68750000  0.43750000  0.56250000  1.0
  Cl  Cl861  1  0.68750000  0.43750000  0.68750000  1.0
  Cl  Cl862  1  0.68750000  0.43750000  0.81250000  1.0
  Cl  Cl863  1  0.68750000  0.43750000  0.93750000  1.0
  Cl  Cl864  1  0.68750000  0.56250000  0.06250000  1.0
  Cl  Cl865  1  0.68750000  0.56250000  0.18750000  1.0
  Cl  Cl866  1  0.68750000  0.56250000  0.31250000  1.0
  Cl  Cl867  1  0.68750000  0.56250000  0.43750000  1.0
  Cl  Cl868  1  0.68750000  0.56250000  0.56250000  1.0
  Cl  Cl869  1  0.68750000  0.56250000  0.68750000  1.0
  Cl  Cl870  1  0.68750000  0.56250000  0.81250000  1.0
  Cl  Cl871  1  0.68750000  0.56250000  0.93750000  1.0
  Cl  Cl872  1  0.68750000  0.68750000  0.06250000  1.0
  Cl  Cl873  1  0.68750000  0.68750000  0.18750000  1.0
  Cl  Cl874  1  0.68750000  0.68750000  0.31250000  1.0
  Cl  Cl875  1  0.68750000  0.68750000  0.43750000  1.0
  Cl  Cl876  1  0.68750000  0.68750000  0.56250000  1.0
  Cl  Cl877  1  0.68750000  0.68750000  0.68750000  1.0
  Cl  Cl878  1  0.68750000  0.68750000  0.81250000  1.0
  Cl  Cl879  1  0.68750000  0.68750000  0.93750000  1.0
  Cl  Cl880  1  0.68750000  0.81250000  0.06250000  1.0
  Cl  Cl881  1  0.68750000  0.81250000  0.18750000  1.0
  Cl  Cl882  1  0.68750000  0.81250000  0.31250000  1.0
  Cl  Cl883  1  0.68750000  0.81250000  0.43750000  1.0
  Cl  Cl884  1  0.68750000  0.81250000  0.56250000  1.0
  Cl  Cl885  1  0.68750000  0.81250000  0.68750000  1.0
  Cl  Cl886  1  0.68750000  0.81250000  0.81250000  1.0
  Cl  Cl887  1  0.68750000  0.81250000  0.93750000  1.0
  Cl  Cl888  1  0.68750000  0.93750000  0.06250000  1.0
  Cl  Cl889  1  0.68750000  0.93750000  0.18750000  1.0
  Cl  Cl890  1  0.68750000  0.93750000  0.31250000  1.0
  Cl  Cl891  1  0.68750000  0.93750000  0.43750000  1.0
  Cl  Cl892  1  0.68750000  0.93750000  0.56250000  1.0
  Cl  Cl893  1  0.68750000  0.93750000  0.68750000  1.0
  Cl  Cl894  1  0.68750000  0.93750000  0.81250000  1.0
  Cl  Cl895  1  0.68750000  0.93750000  0.93750000  1.0
  Cl  Cl896  1  0.81250000  0.06250000  0.06250000  1.0
  Cl  Cl897  1  0.81250000  0.06250000  0.18750000  1.0
  Cl  Cl898  1  0.81250000  0.06250000  0.31250000  1.0
  Cl  Cl899  1  0.81250000  0.06250000  0.43750000  1.0
  Cl  Cl900  1  0.81250000  0.06250000  0.56250000  1.0
  Cl  Cl901  1  0.81250000  0.06250000  0.68750000  1.0
  Cl  Cl902  1  0.81250000  0.06250000  0.81250000  1.0
  Cl  Cl903  1  0.81250000  0.06250000  0.93750000  1.0
  Cl  Cl904  1  0.81250000  0.18750000  0.06250000  1.0
  Cl  Cl905  1  0.81250000  0.18750000  0.18750000  1.0
  Cl  Cl906  1  0.81250000  0.18750000  0.31250000  1.0
  Cl  Cl907  1  0.81250000  0.18750000  0.43750000  1.0
  Cl  Cl908  1  0.81250000  0.18750000  0.56250000  1.0
  Cl  Cl909  1  0.81250000  0.18750000  0.68750000  1.0
  Cl  Cl910  1  0.81250000  0.18750000  0.81250000  1.0
  Cl  Cl911  1  0.81250000  0.18750000  0.93750000  1.0
  Cl  Cl912  1  0.81250000  0.31250000  0.06250000  1.0
  Cl  Cl913  1  0.81250000  0.31250000  0.18750000  1.0
  Cl  Cl914  1  0.81250000  0.31250000  0.31250000  1.0
  Cl  Cl915  1  0.81250000  0.31250000  0.43750000  1.0
  Cl  Cl916  1  0.81250000  0.31250000  0.56250000  1.0
  Cl  Cl917  1  0.81250000  0.31250000  0.68750000  1.0
  Cl  Cl918  1  0.81250000  0.31250000  0.81250000  1.0
  Cl  Cl919  1  0.81250000  0.31250000  0.93750000  1.0
  Cl  Cl920  1  0.81250000  0.43750000  0.06250000  1.0
  Cl  Cl921  1  0.81250000  0.43750000  0.18750000  1.0
  Cl  Cl922  1  0.81250000  0.43750000  0.31250000  1.0
  Cl  Cl923  1  0.81250000  0.43750000  0.43750000  1.0
  Cl  Cl924  1  0.81250000  0.43750000  0.56250000  1.0
  Cl  Cl925  1  0.81250000  0.43750000  0.68750000  1.0
  Cl  Cl926  1  0.81250000  0.43750000  0.81250000  1.0
  Cl  Cl927  1  0.81250000  0.43750000  0.93750000  1.0
  Cl  Cl928  1  0.81250000  0.56250000  0.06250000  1.0
  Cl  Cl929  1  0.81250000  0.56250000  0.18750000  1.0
  Cl  Cl930  1  0.81250000  0.56250000  0.31250000  1.0
  Cl  Cl931  1  0.81250000  0.56250000  0.43750000  1.0
  Cl  Cl932  1  0.81250000  0.56250000  0.56250000  1.0
  Cl  Cl933  1  0.81250000  0.56250000  0.68750000  1.0
  Cl  Cl934  1  0.81250000  0.56250000  0.81250000  1.0
  Cl  Cl935  1  0.81250000  0.56250000  0.93750000  1.0
  Cl  Cl936  1  0.81250000  0.68750000  0.06250000  1.0
  Cl  Cl937  1  0.81250000  0.68750000  0.18750000  1.0
  Cl  Cl938  1  0.81250000  0.68750000  0.31250000  1.0
  Cl  Cl939  1  0.81250000  0.68750000  0.43750000  1.0
  Cl  Cl940  1  0.81250000  0.68750000  0.56250000  1.0
  Cl  Cl941  1  0.81250000  0.68750000  0.68750000  1.0
  Cl  Cl942  1  0.81250000  0.68750000  0.81250000  1.0
  Cl  Cl943  1  0.81250000  0.68750000  0.93750000  1.0
  Cl  Cl944  1  0.81250000  0.81250000  0.06250000  1.0
  Cl  Cl945  1  0.81250000  0.81250000  0.18750000  1.0
  Cl  Cl946  1  0.81250000  0.81250000  0.31250000  1.0
  Cl  Cl947  1  0.81250000  0.81250000  0.43750000  1.0
  Cl  Cl948  1  0.81250000  0.81250000  0.56250000  1.0
  Cl  Cl949  1  0.81250000  0.81250000  0.68750000  1.0
  Cl  Cl950  1  0.81250000  0.81250000  0.81250000  1.0
  Cl  Cl951  1  0.81250000  0.81250000  0.93750000  1.0
  Cl  Cl952  1  0.81250000  0.93750000  0.06250000  1.0
  Cl  Cl953  1  0.81250000  0.93750000  0.18750000  1.0
  Cl  Cl954  1  0.81250000  0.93750000  0.31250000  1.0
  Cl  Cl955  1  0.81250000  0.93750000  0.43750000  1.0
  Cl  Cl956  1  0.81250000  0.93750000  0.56250000  1.0
  Cl  Cl957  1  0.81250000  0.93750000  0.68750000  1.0
  Cl  Cl958  1  0.81250000  0.93750000  0.81250000  1.0
  Cl  Cl959  1  0.81250000  0.93750000  0.93750000  1.0
  Cl  Cl960  1  0.93750000  0.06250000  0.06250000  1.0
  Cl  Cl961  1  0.93750000  0.06250000  0.18750000  1.0
  Cl  Cl962  1  0.93750000  0.06250000  0.31250000  1.0
  Cl  Cl963  1  0.93750000  0.06250000  0.43750000  1.0
  Cl  Cl964  1  0.93750000  0.06250000  0.56250000  1.0
  Cl  Cl965  1  0.93750000  0.06250000  0.68750000  1.0
  Cl  Cl966  1  0.93750000  0.06250000  0.81250000  1.0
  Cl  Cl967  1  0.93750000  0.06250000  0.93750000  1.0
  Cl  Cl968  1  0.93750000  0.18750000  0.06250000  1.0
  Cl  Cl969  1  0.93750000  0.18750000  0.18750000  1.0
  Cl  Cl970  1  0.93750000  0.18750000  0.31250000  1.0
  Cl  Cl971  1  0.93750000  0.18750000  0.43750000  1.0
  Cl  Cl972  1  0.93750000  0.18750000  0.56250000  1.0
  Cl  Cl973  1  0.93750000  0.18750000  0.68750000  1.0
  Cl  Cl974  1  0.93750000  0.18750000  0.81250000  1.0
  Cl  Cl975  1  0.93750000  0.18750000  0.93750000  1.0
  Cl  Cl976  1  0.93750000  0.31250000  0.06250000  1.0
  Cl  Cl977  1  0.93750000  0.31250000  0.18750000  1.0
  Cl  Cl978  1  0.93750000  0.31250000  0.31250000  1.0
  Cl  Cl979  1  0.93750000  0.31250000  0.43750000  1.0
  Cl  Cl980  1  0.93750000  0.31250000  0.56250000  1.0
  Cl  Cl981  1  0.93750000  0.31250000  0.68750000  1.0
  Cl  Cl982  1  0.93750000  0.31250000  0.81250000  1.0
  Cl  Cl983  1  0.93750000  0.31250000  0.93750000  1.0
  Cl  Cl984  1  0.93750000  0.43750000  0.06250000  1.0
  Cl  Cl985  1  0.93750000  0.43750000  0.18750000  1.0
  Cl  Cl986  1  0.93750000  0.43750000  0.31250000  1.0
  Cl  Cl987  1  0.93750000  0.43750000  0.43750000  1.0
  Cl  Cl988  1  0.93750000  0.43750000  0.56250000  1.0
  Cl  Cl989  1  0.93750000  0.43750000  0.68750000  1.0
  Cl  Cl990  1  0.93750000  0.43750000  0.81250000  1.0
  Cl  Cl991  1  0.93750000  0.43750000  0.93750000  1.0
  Cl  Cl992  1  0.93750000  0.56250000  0.06250000  1.0
  Cl  Cl993  1  0.93750000  0.56250000  0.18750000  1.0
  Cl  Cl994  1  0.93750000  0.56250000  0.31250000  1.0
  Cl  Cl995  1  0.93750000  0.56250000  0.43750000  1.0
  Cl  Cl996  1  0.93750000  0.56250000  0.56250000  1.0
  Cl  Cl997  1  0.93750000  0.56250000  0.68750000  1.0
  Cl  Cl998  1  0.93750000  0.56250000  0.81250000  1.0
  Cl  Cl999  1  0.93750000  0.56250000  0.93750000  1.0
  Cl  Cl1000  1  0.93750000  0.68750000  0.06250000  1.0
  Cl  Cl1001  1  0.93750000  0.68750000  0.18750000  1.0
  Cl  Cl1002  1  0.93750000  0.68750000  0.31250000  1.0
  Cl  Cl1003  1  0.93750000  0.68750000  0.43750000  1.0
  Cl  Cl1004  1  0.93750000  0.68750000  0.56250000  1.0
  Cl  Cl1005  1  0.93750000  0.68750000  0.68750000  1.0
  Cl  Cl1006  1  0.93750000  0.68750000  0.81250000  1.0
  Cl  Cl1007  1  0.93750000  0.68750000  0.93750000  1.0
  Cl  Cl1008  1  0.93750000  0.81250000  0.06250000  1.0
  Cl  Cl1009  1  0.93750000  0.81250000  0.18750000  1.0
  Cl  Cl1010  1  0.93750000  0.81250000  0.31250000  1.0
  Cl  Cl1011  1  0.93750000  0.81250000  0.43750000  1.0
  Cl  Cl1012  1  0.93750000  0.81250000  0.56250000  1.0
  Cl  Cl1013  1  0.93750000  0.81250000  0.68750000  1.0
  Cl  Cl1014  1  0.93750000  0.81250000  0.81250000  1.0
  Cl  Cl1015  1  0.93750000  0.81250000  0.93750000  1.0
  Cl  Cl1016  1  0.93750000  0.93750000  0.06250000  1.0
  Cl  Cl1017  1  0.93750000  0.93750000  0.18750000  1.0
  Cl  Cl1018  1  0.93750000  0.93750000  0.31250000  1.0
  Cl  Cl1019  1  0.93750000  0.93750000  0.43750000  1.0
  Cl  Cl1020  1  0.93750000  0.93750000  0.56250000  1.0
  Cl  Cl1021  1  0.93750000  0.93750000  0.68750000  1.0
  Cl  Cl1022  1  0.93750000  0.93750000  0.81250000  1.0
  Cl  Cl1023  1  0.93750000  0.93750000  0.93750000  1.0
