# generated using pymatgen
data_Li17Sc5Cl32
_symmetry_space_group_name_H-M   'P 1'
_cell_length_a   32.69622562
_cell_length_b   33.58975163
_cell_length_c   33.45292512
_cell_angle_alpha   90.16406533
_cell_angle_beta   90.18151856
_cell_angle_gamma   90.05878367
_symmetry_Int_Tables_number   1
_chemical_formula_structural   Li17Sc5Cl32
_chemical_formula_sum   'Li459 Sc135 Cl864'
_cell_volume   36739.59122865
_cell_formula_units_Z   27
loop_
 _symmetry_equiv_pos_site_id
 _symmetry_equiv_pos_as_xyz
  1  'x, y, z'
loop_
 _atom_site_type_symbol
 _atom_site_label
 _atom_site_symmetry_multiplicity
 _atom_site_fract_x
 _atom_site_fract_y
 _atom_site_fract_z
 _atom_site_occupancy
  Li  Li0  1  1.72269000  1.91091000  9.46529000  1
  Li  Li1  1  1.90485000  1.55500000  21.06020000  1
  Li  Li2  1  2.62267000  4.39830000  29.91540000  1
  Li  Li3  1  3.42817000  14.96460000  8.36513000  1
  Li  Li4  1  3.05417000  14.15650000  20.95870000  1
  Li  Li5  1  2.46381000  12.76580000  31.76120000  1
  Li  Li6  1  3.24204000  26.04950000  8.00182000  1
  Li  Li7  1  4.86891000  25.79040000  18.35660000  1
  Li  Li8  1  3.69833000  25.39860000  30.80130000  1
  Li  Li9  1  12.17020000  0.89299600  9.54902000  1
  Li  Li10  1  12.23960000  0.49570100  19.87200000  1
  Li  Li11  1  12.45440000  5.39754000  30.70920000  1
  Li  Li12  1  12.23780000  11.54850000  10.69940000  1
  Li  Li13  1  14.52750000  13.13070000  19.93280000  1
  Li  Li14  1  14.26250000  17.31060000  30.76980000  1
  Li  Li15  1  13.25530000  23.43310000  9.17835000  1
  Li  Li16  1  13.08400000  25.06780000  20.64120000  1
  Li  Li17  1  12.42870000  29.49400000  31.69930000  1
  Li  Li18  1  23.45360000  1.62741000  9.26409000  1
  Li  Li19  1  23.04240000  1.42692000  21.19530000  1
  Li  Li20  1  23.19480000  1.46884000  -1.33574000  1
  Li  Li21  1  23.62350000  13.40890000  11.57560000  1
  Li  Li22  1  24.99880000  15.01700000  19.36960000  1
  Li  Li23  1  25.29960000  12.83030000  -0.10949200  1
  Li  Li24  1  25.99760000  23.47120000  9.21879000  1
  Li  Li25  1  23.62860000  22.40460000  21.49580000  1
  Li  Li26  1  23.54380000  22.82320000  31.67260000  1
  Li  Li27  1  1.20868000  8.75246000  0.13924600  1
  Li  Li28  1  3.40178000  8.80548000  13.09350000  1
  Li  Li29  1  6.79580000  6.52240000  21.11120000  1
  Li  Li30  1  7.81246000  17.48790000  -0.87454500  1
  Li  Li31  1  4.85947000  18.82470000  11.92710000  1
  Li  Li32  1  5.62366000  20.26490000  24.39430000  1
  Li  Li33  1  5.79115000  27.49320000  1.17110000  1
  Li  Li34  1  5.28360000  28.63160000  9.51033000  1
  Li  Li35  1  4.51963000  29.77030000  24.24240000  1
  Li  Li36  1  15.88780000  6.20630000  -0.05752490  1
  Li  Li37  1  13.78400000  7.98111000  14.63160000  1
  Li  Li38  1  14.92220000  4.65142000  21.74540000  1
  Li  Li39  1  15.58480000  19.09560000  1.71309000  1
  Li  Li40  1  16.89890000  16.21400000  11.09990000  1
  Li  Li41  1  13.09750000  19.37310000  23.53140000  1
  Li  Li42  1  16.73370000  28.58330000  -0.35811600  1
  Li  Li43  1  12.30410000  29.37720000  11.67920000  1
  Li  Li44  1  12.10450000  -0.77324300  22.91420000  1
  Li  Li45  1  24.27380000  7.53361000  4.11007000  1
  Li  Li46  1  24.08430000  6.71798000  15.76140000  1
  Li  Li47  1  24.50950000  8.44425000  24.60610000  1
  Li  Li48  1  27.73440000  15.98730000  -0.41465200  1
  Li  Li49  1  27.85120000  17.74630000  13.70110000  1
  Li  Li50  1  23.40370000  18.59550000  26.11520000  1
  Li  Li51  1  26.07410000  27.53390000  3.53854000  1
  Li  Li52  1  28.00580000  25.97180000  11.81440000  1
  Li  Li53  1  26.13370000  28.65170000  23.48500000  1
  Li  Li54  1  -0.54694100  8.90142000  7.44374000  1
  Li  Li55  1  0.47966800  6.05963000  16.48480000  1
  Li  Li56  1  30.07690000  8.30759000  29.84340000  1
  Li  Li57  1  1.16509000  16.80450000  5.37478000  1
  Li  Li58  1  0.06008220  17.78670000  16.35620000  1
  Li  Li59  1  30.50770000  16.80170000  27.01150000  1
  Li  Li60  1  -0.06030290  29.83770000  4.52199000  1
  Li  Li61  1  0.46248300  29.41470000  16.19910000  1
  Li  Li62  1  1.88529000  30.57230000  26.74350000  1
  Li  Li63  1  10.80440000  5.49488000  5.75506000  1
  Li  Li64  1  10.96870000  6.08160000  16.54870000  1
  Li  Li65  1  11.01740000  5.56526000  27.24840000  1
  Li  Li66  1  11.56790000  16.87590000  5.38180000  1
  Li  Li67  1  15.10620000  19.40380000  14.04550000  1
  Li  Li68  1  8.64257000  16.97750000  25.42830000  1
  Li  Li69  1  13.31230000  32.11450000  1.62180000  1
  Li  Li70  1  12.04330000  28.66920000  15.50450000  1
  Li  Li71  1  9.95636000  28.79310000  28.43210000  1
  Li  Li72  1  21.01470000  5.20221000  6.07207000  1
  Li  Li73  1  21.12960000  4.95427000  16.62990000  1
  Li  Li74  1  20.72800000  5.16410000  28.03270000  1
  Li  Li75  1  21.91780000  17.98970000  5.16862000  1
  Li  Li76  1  22.21280000  16.46850000  17.29530000  1
  Li  Li77  1  21.88300000  16.11020000  28.28930000  1
  Li  Li78  1  22.25420000  27.90380000  5.53712000  1
  Li  Li79  1  24.37730000  26.64990000  16.86630000  1
  Li  Li80  1  25.00090000  25.43940000  29.08650000  1
  Li  Li81  1  8.49374000  5.35252000  2.73894000  1
  Li  Li82  1  6.18259000  5.38962000  13.29930000  1
  Li  Li83  1  8.01865000  3.65943000  25.17050000  1
  Li  Li84  1  9.27137000  16.48680000  2.70703000  1
  Li  Li85  1  9.27441000  12.95390000  11.49480000  1
  Li  Li86  1  4.66883000  13.40680000  25.24410000  1
  Li  Li87  1  9.09984000  26.71870000  1.79624000  1
  Li  Li88  1  8.55776000  27.96750000  11.79090000  1
  Li  Li89  1  8.12320000  27.70710000  23.87300000  1
  Li  Li90  1  18.62530000  4.48745000  3.01061000  1
  Li  Li91  1  18.51830000  3.20305000  13.27800000  1
  Li  Li92  1  18.83880000  3.72587000  23.04760000  1
  Li  Li93  1  21.44860000  14.32500000  4.33739000  1
  Li  Li94  1  19.96140000  13.82590000  13.99820000  1
  Li  Li95  1  19.37460000  15.01440000  24.47320000  1
  Li  Li96  1  17.10870000  25.24050000  3.96337000  1
  Li  Li97  1  20.47400000  26.79620000  14.92340000  1
  Li  Li98  1  22.01730000  27.18520000  28.30490000  1
  Li  Li99  1  30.84700000  3.40180000  3.13167000  1
  Li  Li100  1  30.33250000  5.64604000  14.01460000  1
  Li  Li101  1  0.12223600  5.54810000  20.31360000  1
  Li  Li102  1  31.53630000  14.38210000  3.20966000  1
  Li  Li103  1  30.92820000  14.09610000  13.92620000  1
  Li  Li104  1  30.21940000  13.73420000  25.19920000  1
  Li  Li105  1  29.53340000  26.32570000  2.60093000  1
  Li  Li106  1  31.64330000  25.91270000  14.11710000  1
  Li  Li107  1  31.34630000  25.56970000  26.08440000  1
  Li  Li108  1  5.62838000  0.33051000  5.36755000  1
  Li  Li109  1  6.01229000  -0.50046700  16.84950000  1
  Li  Li110  1  5.02809000  0.96613900  29.15580000  1
  Li  Li111  1  4.20892000  13.12130000  5.45968000  1
  Li  Li112  1  6.08502000  12.00620000  17.02190000  1
  Li  Li113  1  5.64912000  11.22650000  28.48200000  1
  Li  Li114  1  5.48835000  22.26680000  4.89490000  1
  Li  Li115  1  5.28770000  21.62500000  15.73260000  1
  Li  Li116  1  5.96630000  22.13370000  27.42390000  1
  Li  Li117  1  14.92100000  1.61220000  7.58115000  1
  Li  Li118  1  18.06980000  -0.46667900  15.74590000  1
  Li  Li119  1  18.12300000  1.20002000  26.43310000  1
  Li  Li120  1  17.53110000  11.81940000  3.93294000  1
  Li  Li121  1  17.02400000  10.20780000  17.74370000  1
  Li  Li122  1  17.83520000  12.58590000  25.91730000  1
  Li  Li123  1  17.16350000  19.70950000  5.56679000  1
  Li  Li124  1  16.77180000  20.01770000  16.79470000  1
  Li  Li125  1  19.89940000  24.41940000  26.50410000  1
  Li  Li126  1  27.35220000  0.03220830  5.68533000  1
  Li  Li127  1  26.39440000  -0.29684000  17.47460000  1
  Li  Li128  1  25.43250000  0.34556700  29.12470000  1
  Li  Li129  1  28.10710000  10.78630000  6.19586000  1
  Li  Li130  1  27.48510000  11.96010000  16.80120000  1
  Li  Li131  1  27.22510000  10.59680000  26.81430000  1
  Li  Li132  1  28.23080000  20.97240000  6.35410000  1
  Li  Li133  1  28.35810000  24.21770000  15.42500000  1
  Li  Li134  1  26.70100000  21.76160000  30.02010000  1
  Li  Li135  1  9.38277000  9.53302000  -0.89371500  1
  Li  Li136  1  6.48773000  7.80329000  9.29565000  1
  Li  Li137  1  8.50881000  8.81311000  19.19280000  1
  Li  Li138  1  9.66614000  21.56240000  -1.27860000  1
  Li  Li139  1  8.11166000  21.32190000  11.25640000  1
  Li  Li140  1  7.83777000  19.73040000  18.54450000  1
  Li  Li141  1  7.72480000  28.59340000  31.34910000  1
  Li  Li142  1  8.66389000  31.08440000  6.08709000  1
  Li  Li143  1  8.56278000  32.20560000  19.30800000  1
  Li  Li144  1  19.70860000  7.69636000  30.28630000  1
  Li  Li145  1  16.05980000  5.66088000  11.64650000  1
  Li  Li146  1  18.33740000  6.76332000  21.32010000  1
  Li  Li147  1  18.26050000  18.67530000  -0.93840600  1
  Li  Li148  1  19.79470000  19.30030000  7.99250000  1
  Li  Li149  1  18.72920000  18.57550000  19.00330000  1
  Li  Li150  1  19.79240000  29.87530000  31.80740000  1
  Li  Li151  1  19.43860000  30.83530000  9.79597000  1
  Li  Li152  1  16.76850000  28.04600000  21.79240000  1
  Li  Li153  1  27.13360000  4.67911000  0.80300000  1
  Li  Li154  1  29.17490000  6.99988000  10.22600000  1
  Li  Li155  1  29.00670000  6.72968000  20.34730000  1
  Li  Li156  1  29.26880000  18.73840000  30.61370000  1
  Li  Li157  1  30.18430000  19.57470000  9.03061000  1
  Li  Li158  1  -0.42603200  16.71140000  20.10980000  1
  Li  Li159  1  29.72020000  31.70580000  29.84790000  1
  Li  Li160  1  30.04030000  30.51400000  6.99520000  1
  Li  Li161  1  29.70750000  31.29980000  18.29540000  1
  Li  Li162  1  5.82112000  2.86190000  2.27573000  1
  Li  Li163  1  3.08922000  2.83291000  16.41620000  1
  Li  Li164  1  2.35283000  1.89681000  26.58740000  1
  Li  Li165  1  6.15351000  15.05810000  2.47654000  1
  Li  Li166  1  2.97785000  14.88050000  17.10270000  1
  Li  Li167  1  2.71360000  14.62850000  28.06430000  1
  Li  Li168  1  1.81455000  24.13200000  4.29557000  1
  Li  Li169  1  1.67841000  26.57910000  16.52960000  1
  Li  Li170  1  2.75698000  25.36850000  27.13010000  1
  Li  Li171  1  15.35770000  6.13300000  3.81251000  1
  Li  Li172  1  14.36160000  1.26940000  16.25030000  1
  Li  Li173  1  14.41820000  5.68424000  27.70380000  1
  Li  Li174  1  14.60120000  13.89810000  5.08312000  1
  Li  Li175  1  14.26510000  16.63980000  16.77510000  1
  Li  Li176  1  16.40180000  17.96270000  24.33350000  1
  Li  Li177  1  17.39920000  31.43520000  2.11713000  1
  Li  Li178  1  16.32720000  26.29060000  14.98100000  1
  Li  Li179  1  14.16000000  27.86530000  27.65990000  1
  Li  Li180  1  23.04740000  1.00146000  5.52642000  1
  Li  Li181  1  27.53810000  2.20278000  12.92560000  1
  Li  Li182  1  27.41920000  2.26990000  26.22810000  1
  Li  Li183  1  27.67670000  14.21910000  3.39929000  1
  Li  Li184  1  27.42660000  13.89020000  13.34840000  1
  Li  Li185  1  24.40600000  11.19460000  28.64010000  1
  Li  Li186  1  27.68470000  22.55930000  2.97008000  1
  Li  Li187  1  25.64620000  29.40820000  12.84360000  1
  Li  Li188  1  25.45880000  28.60090000  27.95130000  1
  Li  Li189  1  1.79211000  7.32339000  5.11803000  1
  Li  Li190  1  3.37382000  5.61169000  19.30990000  1
  Li  Li191  1  0.20421800  5.34375000  27.55760000  1
  Li  Li192  1  8.00553000  19.57380000  7.71706000  1
  Li  Li193  1  5.59728000  17.34280000  22.27180000  1
  Li  Li194  1  3.80223000  17.31140000  31.19230000  1
  Li  Li195  1  3.94846000  29.76540000  6.07891000  1
  Li  Li196  1  4.25905000  29.53120000  17.59690000  1
  Li  Li197  1  4.30161000  29.38980000  28.86820000  1
  Li  Li198  1  13.46270000  5.42529000  9.17131000  1
  Li  Li199  1  15.61150000  4.33335000  15.44380000  1
  Li  Li200  1  12.58550000  8.02384000  0.89926400  1
  Li  Li201  1  15.01940000  17.17310000  7.66798000  1
  Li  Li202  1  14.72730000  17.01290000  20.30300000  1
  Li  Li203  1  14.45060000  14.08390000  27.19790000  1
  Li  Li204  1  11.88260000  27.63450000  5.60969000  1
  Li  Li205  1  14.27790000  28.08270000  19.09050000  1
  Li  Li206  1  13.57810000  30.88160000  28.01780000  1
  Li  Li207  1  24.08530000  5.68989000  9.60893000  1
  Li  Li208  1  24.66870000  5.50406000  19.99570000  1
  Li  Li209  1  27.02080000  3.21469000  21.59260000  1
  Li  Li210  1  22.65330000  21.42780000  11.12640000  1
  Li  Li211  1  25.56310000  18.36300000  16.86870000  1
  Li  Li212  1  25.35980000  18.32280000  29.08250000  1
  Li  Li213  1  25.80860000  29.88460000  6.78385000  1
  Li  Li214  1  26.32490000  28.97310000  18.99970000  1
  Li  Li215  1  26.58190000  27.88240000  -0.41019200  1
  Li  Li216  1  2.91378000  5.76686000  8.21669000  1
  Li  Li217  1  2.42567000  9.16967000  23.79820000  1
  Li  Li218  1  1.21739000  8.52654000  30.06830000  1
  Li  Li219  1  1.13149000  17.93050000  9.56317000  1
  Li  Li220  1  2.22429000  18.69980000  21.88870000  1
  Li  Li221  1  0.50191100  19.93170000  31.23890000  1
  Li  Li222  1  -0.95188000  31.85360000  10.53530000  1
  Li  Li223  1  0.41989100  29.91370000  19.60950000  1
  Li  Li224  1  0.53539000  28.81440000  30.40470000  1
  Li  Li225  1  10.70280000  8.23251000  8.66535000  1
  Li  Li226  1  11.47020000  6.57536000  20.61500000  1
  Li  Li227  1  14.23710000  13.68160000  30.80630000  1
  Li  Li228  1  10.98210000  18.00270000  8.40465000  1
  Li  Li229  1  9.13029000  17.65840000  14.74250000  1
  Li  Li230  1  10.14890000  18.59140000  29.46060000  1
  Li  Li231  1  14.52450000  27.28880000  9.33427000  1
  Li  Li232  1  10.82010000  29.59760000  20.42250000  1
  Li  Li233  1  8.79312000  31.84730000  30.17820000  1
  Li  Li234  1  20.54420000  8.25521000  8.70400000  1
  Li  Li235  1  21.99440000  7.87188000  19.00760000  1
  Li  Li236  1  22.75100000  5.58523000  31.59080000  1
  Li  Li237  1  23.76330000  20.40490000  7.15518000  1
  Li  Li238  1  22.18370000  19.69940000  19.40780000  1
  Li  Li239  1  24.25170000  15.69200000  31.40600000  1
  Li  Li240  1  24.28710000  27.23160000  8.86965000  1
  Li  Li241  1  23.74250000  26.66980000  21.10490000  1
  Li  Li242  1  23.15880000  28.53040000  31.89810000  1
  Li  Li243  1  1.91637000  3.46219000  5.32355000  1
  Li  Li244  1  1.78854000  -0.14058800  12.10140000  1
  Li  Li245  1  1.76982000  -1.03059000  23.52890000  1
  Li  Li246  1  3.00091000  11.65880000  2.04623000  1
  Li  Li247  1  -0.23563200  12.35590000  11.59670000  1
  Li  Li248  1  -0.12305700  11.73360000  22.09570000  1
  Li  Li249  1  1.96504000  20.38370000  2.16580000  1
  Li  Li250  1  2.98685000  24.04440000  13.29080000  1
  Li  Li251  1  31.71930000  20.45610000  19.42840000  1
  Li  Li252  1  12.29760000  2.38470000  5.55550000  1
  Li  Li253  1  12.26490000  -0.15401900  13.40540000  1
  Li  Li254  1  14.51530000  0.67594200  27.80950000  1
  Li  Li255  1  13.70400000  11.17480000  2.29444000  1
  Li  Li256  1  12.28280000  9.47471000  18.83280000  1
  Li  Li257  1  13.29550000  11.46690000  25.10620000  1
  Li  Li258  1  13.77750000  22.78580000  2.63466000  1
  Li  Li259  1  14.25040000  23.34590000  17.15300000  1
  Li  Li260  1  12.91760000  23.45260000  24.20370000  1
  Li  Li261  1  24.27470000  31.60350000  3.95706000  1
  Li  Li262  1  23.81320000  2.09682000  17.21660000  1
  Li  Li263  1  23.68120000  3.28927000  28.30900000  1
  Li  Li264  1  26.08220000  13.75720000  7.39640000  1
  Li  Li265  1  24.06780000  13.98820000  15.23150000  1
  Li  Li266  1  22.19760000  11.16080000  22.71620000  1
  Li  Li267  1  25.18920000  23.65650000  5.71094000  1
  Li  Li268  1  27.20960000  25.06900000  19.50210000  1
  Li  Li269  1  22.46580000  21.85890000  28.18500000  1
  Li  Li270  1  5.62043000  5.09235000  -0.50682700  1
  Li  Li271  1  8.15681000  1.20450000  11.44530000  1
  Li  Li272  1  8.86827000  1.20669000  21.46000000  1
  Li  Li273  1  10.20730000  12.89850000  1.28205000  1
  Li  Li274  1  6.17302000  12.95670000  9.13012000  1
  Li  Li275  1  6.84829000  12.62650000  21.20500000  1
  Li  Li276  1  7.38609000  24.42320000  32.30070000  1
  Li  Li277  1  7.92256000  25.03280000  13.40710000  1
  Li  Li278  1  10.02950000  21.60020000  20.75310000  1
  Li  Li279  1  16.69650000  2.41505000  0.97916300  1
  Li  Li280  1  22.03450000  29.29360000  12.59880000  1
  Li  Li281  1  20.73970000  0.04983780  23.90980000  1
  Li  Li282  1  19.69300000  12.30290000  1.09490000  1
  Li  Li283  1  15.06250000  13.69530000  9.56006000  1
  Li  Li284  1  18.62630000  11.20100000  21.88790000  1
  Li  Li285  1  21.58370000  21.34800000  0.62456400  1
  Li  Li286  1  17.08110000  24.48380000  9.59359000  1
  Li  Li287  1  19.52860000  25.91870000  23.13610000  1
  Li  Li288  1  29.03310000  1.99428000  -0.25220800  1
  Li  Li289  1  26.71140000  6.04893000  13.72030000  1
  Li  Li290  1  30.46830000  3.01010000  22.66140000  1
  Li  Li291  1  30.19410000  10.85460000  -0.28252300  1
  Li  Li292  1  22.58180000  16.51590000  8.54855000  1
  Li  Li293  1  29.16020000  13.26070000  20.52050000  1
  Li  Li294  1  28.52600000  23.83730000  -0.74127900  1
  Li  Li295  1  31.16500000  25.49700000  10.56610000  1
  Li  Li296  1  30.85850000  22.32380000  22.70520000  1
  Li  Li297  1  3.10807000  0.51588300  1.86852000  1
  Li  Li298  1  5.36313000  3.33934000  10.47720000  1
  Li  Li299  1  5.70266000  3.05938000  22.04560000  1
  Li  Li300  1  6.86507000  13.33820000  -0.98136900  1
  Li  Li301  1  4.58680000  13.01850000  12.25590000  1
  Li  Li302  1  6.66579000  9.96638000  23.67060000  1
  Li  Li303  1  5.00470000  23.92560000  1.76458000  1
  Li  Li304  1  6.63619000  25.18180000  9.92559000  1
  Li  Li305  1  5.27958000  28.04300000  21.21060000  1
  Li  Li306  1  16.76320000  1.67727000  4.64735000  1
  Li  Li307  1  16.49500000  -0.95643300  13.15550000  1
  Li  Li308  1  16.29970000  1.07054000  23.41540000  1
  Li  Li309  1  16.99590000  15.03090000  -0.43182800  1
  Li  Li310  1  13.81010000  13.36260000  16.18030000  1
  Li  Li311  1  16.61870000  13.85060000  22.45500000  1
  Li  Li312  1  15.68720000  25.43630000  -0.17516800  1
  Li  Li313  1  15.96610000  22.95200000  13.72440000  1
  Li  Li314  1  16.17570000  25.92310000  24.80490000  1
  Li  Li315  1  26.25240000  0.72549800  2.40029000  1
  Li  Li316  1  20.68740000  0.20720300  12.20540000  1
  Li  Li317  1  27.31020000  32.02810000  25.69530000  1
  Li  Li318  1  24.40500000  12.13830000  4.62329000  1
  Li  Li319  1  24.73040000  10.39430000  14.14310000  1
  Li  Li320  1  26.95830000  13.17870000  23.28070000  1
  Li  Li321  1  24.63100000  20.18040000  3.80325000  1
  Li  Li322  1  28.44820000  21.91930000  13.16890000  1
  Li  Li323  1  27.68660000  23.22200000  24.90140000  1
  Li  Li324  1  9.74909000  5.10954000  -0.89424700  1
  Li  Li325  1  8.93922000  7.33935000  12.24960000  1
  Li  Li326  1  11.02300000  10.70480000  22.28720000  1
  Li  Li327  1  11.26890000  19.32410000  0.12160800  1
  Li  Li328  1  11.64590000  20.05300000  11.67940000  1
  Li  Li329  1  11.19000000  17.04650000  19.44480000  1
  Li  Li330  1  11.33160000  1.14401000  -0.66393000  1
  Li  Li331  1  8.82258000  31.40800000  10.21620000  1
  Li  Li332  1  9.08099000  31.11290000  22.98290000  1
  Li  Li333  1  22.49190000  7.77471000  0.83993900  1
  Li  Li334  1  22.37450000  7.97440000  12.01990000  1
  Li  Li335  1  20.86650000  7.21162000  23.42610000  1
  Li  Li336  1  20.34330000  18.31280000  1.94559000  1
  Li  Li337  1  25.32420000  20.86550000  14.00530000  1
  Li  Li338  1  19.62840000  19.62350000  22.72440000  1
  Li  Li339  1  20.62100000  28.61140000  1.87602000  1
  Li  Li340  1  24.73120000  -0.65120300  13.77260000  1
  Li  Li341  1  22.98190000  30.80260000  21.02520000  1
  Li  Li342  1  30.29590000  7.15316000  -0.18426900  1
  Li  Li343  1  -0.11295100  8.60547000  11.33710000  1
  Li  Li344  1  30.71140000  6.55931000  23.29450000  1
  Li  Li345  1  30.95120000  18.34660000  0.52122200  1
  Li  Li346  1  31.51090000  19.15240000  13.03270000  1
  Li  Li347  1  27.76810000  19.76150000  25.28640000  1
  Li  Li348  1  -0.06835270  0.66025200  -0.30246600  1
  Li  Li349  1  29.03680000  29.04010000  15.05220000  1
  Li  Li350  1  29.83280000  29.14400000  21.77110000  1
  Li  Li351  1  4.28490000  7.66099000  2.16980000  1
  Li  Li352  1  6.86734000  7.82070000  15.61740000  1
  Li  Li353  1  5.31894000  6.13519000  24.85170000  1
  Li  Li354  1  5.85421000  18.97940000  1.73711000  1
  Li  Li355  1  5.80524000  16.36150000  14.58250000  1
  Li  Li356  1  5.67725000  18.93520000  27.94070000  1
  Li  Li357  1  7.30014000  29.88620000  2.80235000  1
  Li  Li358  1  5.57934000  30.88260000  12.61390000  1
  Li  Li359  1  7.01502000  30.68510000  26.37180000  1
  Li  Li360  1  17.78750000  8.44028000  6.36972000  1
  Li  Li361  1  17.72430000  7.54330000  14.75820000  1
  Li  Li362  1  17.41510000  7.72615000  25.02450000  1
  Li  Li363  1  17.76110000  15.88850000  3.02613000  1
  Li  Li364  1  18.26920000  16.92120000  14.53090000  1
  Li  Li365  1  14.98390000  23.60320000  28.06860000  1
  Li  Li366  1  16.22000000  29.35120000  5.15724000  1
  Li  Li367  1  18.57940000  29.26480000  16.57380000  1
  Li  Li368  1  17.71260000  28.93750000  26.11380000  1
  Li  Li369  1  26.69340000  4.08384000  4.31990000  1
  Li  Li370  1  28.58840000  9.41711000  12.95550000  1
  Li  Li371  1  28.47490000  7.21838000  26.55950000  1
  Li  Li372  1  28.28110000  18.59500000  3.14648000  1
  Li  Li373  1  29.03330000  20.01380000  16.53660000  1
  Li  Li374  1  26.72910000  16.48180000  26.21150000  1
  Li  Li375  1  27.76630000  30.34860000  2.76958000  1
  Li  Li376  1  28.50200000  29.86130000  11.49720000  1
  Li  Li377  1  29.12060000  28.93020000  25.61360000  1
  Li  Li378  1  5.61936000  9.09687000  5.44429000  1
  Li  Li379  1  3.13353000  11.10070000  15.76130000  1
  Li  Li380  1  2.77628000  7.37177000  26.80180000  1
  Li  Li381  1  4.10666000  18.59080000  6.95634000  1
  Li  Li382  1  3.09761000  18.77980000  18.26060000  1
  Li  Li383  1  1.96037000  19.99450000  26.28390000  1
  Li  Li384  1  2.13156000  0.07625230  5.60255000  1
  Li  Li385  1  2.59837000  -0.78970200  17.60770000  1
  Li  Li386  1  1.92378000  -1.04220000  29.89870000  1
  Li  Li387  1  14.13970000  10.34500000  5.83596000  1
  Li  Li388  1  15.13870000  6.57010000  18.39090000  1
  Li  Li389  1  16.05040000  9.87515000  27.73850000  1
  Li  Li390  1  13.73490000  20.51850000  5.63755000  1
  Li  Li391  1  12.17200000  20.17150000  17.99020000  1
  Li  Li392  1  15.06190000  19.54280000  27.37060000  1
  Li  Li393  1  13.58920000  32.50220000  5.14629000  1
  Li  Li394  1  14.94810000  30.94590000  15.80860000  1
  Li  Li395  1  15.17070000  31.52480000  24.64520000  1
  Li  Li396  1  27.09860000  6.89654000  6.92721000  1
  Li  Li397  1  27.57050000  8.34545000  16.68480000  1
  Li  Li398  1  24.64720000  7.57058000  28.06100000  1
  Li  Li399  1  26.02990000  17.23120000  6.21248000  1
  Li  Li400  1  25.64000000  22.08270000  16.98000000  1
  Li  Li401  1  22.12480000  19.12710000  31.31500000  1
  Li  Li402  1  22.99370000  31.62880000  8.02431000  1
  Li  Li403  1  20.74090000  27.99010000  19.84820000  1
  Li  Li404  1  22.17890000  32.23820000  0.73611300  1
  Li  Li405  1  7.47259000  1.39042000  -0.23438300  1
  Li  Li406  1  4.95574000  1.11002000  13.54940000  1
  Li  Li407  1  5.87588000  0.50577000  25.12240000  1
  Li  Li408  1  6.43666000  11.33170000  2.11340000  1
  Li  Li409  1  6.55447000  10.44680000  12.42580000  1
  Li  Li410  1  8.31080000  13.48170000  24.94560000  1
  Li  Li411  1  12.02910000  25.10710000  31.86090000  1
  Li  Li412  1  5.46233000  27.56400000  14.18550000  1
  Li  Li413  1  5.52428000  24.96810000  24.01210000  1
  Li  Li414  1  20.16020000  0.86462500  1.52490000  1
  Li  Li415  1  18.41600000  29.58710000  12.73720000  1
  Li  Li416  1  24.50450000  0.41974800  25.32630000  1
  Li  Li417  1  18.50870000  8.09065000  1.71166000  1
  Li  Li418  1  19.27890000  10.23060000  11.55790000  1
  Li  Li419  1  13.16090000  8.01163000  25.48420000  1
  Li  Li420  1  17.69950000  22.36860000  1.43203000  1
  Li  Li421  1  19.16660000  21.89620000  11.55640000  1
  Li  Li422  1  16.76480000  22.45950000  24.94010000  1
  Li  Li423  1  0.89073500  30.84040000  0.83185700  1
  Li  Li424  1  30.85740000  2.53401000  11.73350000  1
  Li  Li425  1  30.84210000  -0.46768100  21.49100000  1
  Li  Li426  1  28.14280000  7.42012000  2.85970000  1
  Li  Li427  1  29.16870000  12.48940000  9.50592000  1
  Li  Li428  1  28.49850000  9.79251000  23.36340000  1
  Li  Li429  1  31.26160000  23.03910000  1.28176000  1
  Li  Li430  1  0.35007400  21.59100000  11.16430000  1
  Li  Li431  1  24.57120000  17.94270000  21.21800000  1
  Li  Li432  1  -0.50190300  5.10376000  31.41870000  1
  Li  Li433  1  -0.77327800  5.25317000  7.99327000  1
  Li  Li434  1  -0.38244000  9.10825000  19.86270000  1
  Li  Li435  1  31.78700000  16.05950000  31.63180000  1
  Li  Li436  1  31.11470000  15.61370000  10.44210000  1
  Li  Li437  1  28.63950000  16.58980000  22.61140000  1
  Li  Li438  1  29.80740000  29.08120000  0.41730600  1
  Li  Li439  1  1.26458000  30.61190000  8.51868000  1
  Li  Li440  1  29.56250000  26.23110000  22.75410000  1
  Li  Li441  1  12.51940000  8.94795000  30.23740000  1
  Li  Li442  1  9.71371000  5.00764000  9.53135000  1
  Li  Li443  1  9.44912000  6.90280000  23.40170000  1
  Li  Li444  1  12.54540000  17.25770000  26.57730000  1
  Li  Li445  1  8.36603000  17.12370000  11.20280000  1
  Li  Li446  1  8.56671000  19.18360000  21.68680000  1
  Li  Li447  1  9.59325000  30.92300000  0.35598100  1
  Li  Li448  1  10.46570000  27.87170000  8.55030000  1
  Li  Li449  1  7.66948000  24.95390000  20.41890000  1
  Li  Li450  1  19.71040000  4.89976000  -0.52279700  1
  Li  Li451  1  20.24210000  4.54668000  10.37970000  1
  Li  Li452  1  20.70260000  4.56796000  20.34590000  1
  Li  Li453  1  21.13880000  15.31570000  0.22634600  1
  Li  Li454  1  20.12290000  15.14720000  10.67780000  1
  Li  Li455  1  20.04130000  16.28230000  21.37500000  1
  Li  Li456  1  19.54370000  25.07150000  0.41540700  1
  Li  Li457  1  19.27960000  25.98270000  11.85590000  1
  Li  Li458  1  20.66560000  29.00700000  24.05580000  1
  Sc  Sc459  1  1.62729000  4.46476000  1.04035000  1
  Sc  Sc460  1  1.68979000  4.68214000  12.50730000  1
  Sc  Sc461  1  2.10984000  4.49221000  23.79650000  1
  Sc  Sc462  1  1.98361000  15.94180000  0.90550600  1
  Sc  Sc463  1  2.03977000  16.09550000  13.19320000  1
  Sc  Sc464  1  1.28947000  15.91330000  24.34380000  1
  Sc  Sc465  1  0.79417900  27.00880000  0.86113800  1
  Sc  Sc466  1  1.71508000  28.15600000  11.99900000  1
  Sc  Sc467  1  1.24497000  27.46960000  23.37090000  1
  Sc  Sc468  1  12.50280000  4.21387000  1.96690000  1
  Sc  Sc469  1  12.10720000  3.99786000  13.26870000  1
  Sc  Sc470  1  12.21490000  3.21657000  23.83130000  1
  Sc  Sc471  1  13.27550000  15.57640000  1.27889000  1
  Sc  Sc472  1  12.46570000  15.91740000  12.20450000  1
  Sc  Sc473  1  11.99410000  14.96540000  23.08040000  1
  Sc  Sc474  1  12.93020000  27.40280000  1.84023000  1
  Sc  Sc475  1  12.23440000  25.27450000  13.19960000  1
  Sc  Sc476  1  12.69010000  28.01040000  23.35310000  1
  Sc  Sc477  1  22.96810000  3.75077000  2.11260000  1
  Sc  Sc478  1  23.14600000  3.52666000  13.20950000  1
  Sc  Sc479  1  23.29760000  3.96726000  24.22320000  1
  Sc  Sc480  1  24.50850000  16.11230000  2.27234000  1
  Sc  Sc481  1  23.66070000  16.85170000  13.06620000  1
  Sc  Sc482  1  23.54450000  15.40770000  23.89140000  1
  Sc  Sc483  1  23.43400000  25.30830000  1.99298000  1
  Sc  Sc484  1  23.82220000  25.34280000  12.46500000  1
  Sc  Sc485  1  23.66240000  25.34200000  24.93870000  1
  Sc  Sc486  1  6.30702000  4.80810000  6.51558000  1
  Sc  Sc487  1  7.11643000  4.37226000  17.71580000  1
  Sc  Sc488  1  6.64684000  6.66893000  29.19450000  1
  Sc  Sc489  1  7.81150000  15.66090000  6.94108000  1
  Sc  Sc490  1  6.74189000  15.88680000  18.59790000  1
  Sc  Sc491  1  6.69189000  15.33020000  28.68260000  1
  Sc  Sc492  1  7.36627000  27.23030000  6.07916000  1
  Sc  Sc493  1  8.06983000  28.46500000  17.38290000  1
  Sc  Sc494  1  6.66720000  26.08930000  28.12750000  1
  Sc  Sc495  1  17.19300000  4.91310000  7.58953000  1
  Sc  Sc496  1  17.72450000  2.91377000  18.81420000  1
  Sc  Sc497  1  17.03250000  3.58624000  30.22620000  1
  Sc  Sc498  1  18.47140000  15.13870000  6.97724000  1
  Sc  Sc499  1  17.94000000  14.17370000  18.27150000  1
  Sc  Sc500  1  17.81490000  15.78740000  28.80490000  1
  Sc  Sc501  1  18.87670000  27.63590000  7.91287000  1
  Sc  Sc502  1  17.31480000  25.30420000  18.90200000  1
  Sc  Sc503  1  18.02410000  26.40400000  29.47830000  1
  Sc  Sc504  1  27.97580000  3.35341000  8.33875000  1
  Sc  Sc505  1  27.50770000  4.08642000  17.21000000  1
  Sc  Sc506  1  27.85980000  4.45821000  29.80990000  1
  Sc  Sc507  1  29.80860000  16.39980000  6.53590000  1
  Sc  Sc508  1  29.20880000  15.81920000  17.26760000  1
  Sc  Sc509  1  27.76750000  14.24190000  29.42570000  1
  Sc  Sc510  1  28.75350000  26.15420000  7.27823000  1
  Sc  Sc511  1  30.27250000  26.96220000  18.18760000  1
  Sc  Sc512  1  29.27580000  26.98560000  29.47630000  1
  Sc  Sc513  1  31.23960000  0.84444000  7.32895000  1
  Sc  Sc514  1  31.53470000  1.75346000  18.19400000  1
  Sc  Sc515  1  -0.77732400  1.67417000  29.29600000  1
  Sc  Sc516  1  -0.24335100  12.95240000  7.10790000  1
  Sc  Sc517  1  -0.53504800  12.88010000  17.77360000  1
  Sc  Sc518  1  -0.75541600  12.31350000  29.27130000  1
  Sc  Sc519  1  -0.20173600  23.23710000  7.35986000  1
  Sc  Sc520  1  0.94768100  24.15800000  20.01090000  1
  Sc  Sc521  1  -0.45930000  24.43250000  30.47670000  1
  Sc  Sc522  1  8.84741000  1.52260000  7.33934000  1
  Sc  Sc523  1  9.99696000  1.66903000  16.87340000  1
  Sc  Sc524  1  8.80496000  2.99327000  29.32050000  1
  Sc  Sc525  1  10.36120000  12.33150000  6.79134000  1
  Sc  Sc526  1  10.49440000  13.48020000  18.83120000  1
  Sc  Sc527  1  10.03870000  12.87040000  29.27500000  1
  Sc  Sc528  1  9.48587000  23.72490000  6.73047000  1
  Sc  Sc529  1  10.39320000  25.01250000  17.61010000  1
  Sc  Sc530  1  10.17780000  23.74090000  28.23330000  1
  Sc  Sc531  1  19.44120000  0.99821500  7.88381000  1
  Sc  Sc532  1  20.47600000  -0.33191500  19.09340000  1
  Sc  Sc533  1  19.90470000  0.49273900  30.14390000  1
  Sc  Sc534  1  21.73510000  11.94180000  8.00624000  1
  Sc  Sc535  1  21.86440000  12.20340000  18.53960000  1
  Sc  Sc536  1  19.81340000  12.17610000  29.92880000  1
  Sc  Sc537  1  21.51420000  24.27390000  8.13099000  1
  Sc  Sc538  1  21.71530000  23.82930000  18.20520000  1
  Sc  Sc539  1  19.07180000  22.47720000  30.44930000  1
  Sc  Sc540  1  4.58721000  -0.78199600  9.21070000  1
  Sc  Sc541  1  4.69115000  -1.05480000  21.10570000  1
  Sc  Sc542  1  5.12702000  31.79140000  -0.74718700  1
  Sc  Sc543  1  3.04171000  10.50040000  8.82634000  1
  Sc  Sc544  1  4.19995000  9.90514000  20.26990000  1
  Sc  Sc545  1  5.42097000  9.42464000  -1.37476000  1
  Sc  Sc546  1  4.05024000  21.81060000  9.32844000  1
  Sc  Sc547  1  4.94451000  21.83600000  20.73040000  1
  Sc  Sc548  1  4.89619000  21.04590000  31.85500000  1
  Sc  Sc549  1  15.77960000  31.28890000  9.00909000  1
  Sc  Sc550  1  16.13640000  32.10440000  20.16240000  1
  Sc  Sc551  1  15.68100000  -0.69455400  31.68130000  1
  Sc  Sc552  1  15.27740000  9.29630000  9.83791000  1
  Sc  Sc553  1  15.11350000  9.20371000  21.73150000  1
  Sc  Sc554  1  16.29550000  10.54260000  -0.95975900  1
  Sc  Sc555  1  15.83820000  20.39250000  9.78193000  1
  Sc  Sc556  1  15.81620000  21.37660000  20.88430000  1
  Sc  Sc557  1  14.63210000  21.57430000  31.77270000  1
  Sc  Sc558  1  26.84160000  -0.65489100  9.85846000  1
  Sc  Sc559  1  27.01150000  -1.04988000  21.31960000  1
  Sc  Sc560  1  26.34820000  32.07050000  -0.75065200  1
  Sc  Sc561  1  25.71690000  10.11320000  9.71651000  1
  Sc  Sc562  1  25.66960000  9.85707000  20.33270000  1
  Sc  Sc563  1  26.26500000  8.37353000  32.03920000  1
  Sc  Sc564  1  26.25630000  19.36720000  10.15920000  1
  Sc  Sc565  1  27.13860000  20.59240000  20.91460000  1
  Sc  Sc566  1  26.18370000  19.57910000  -0.31455000  1
  Sc  Sc567  1  9.97924000  9.41420000  4.00873000  1
  Sc  Sc568  1  9.96359000  10.35820000  15.37510000  1
  Sc  Sc569  1  9.57652000  9.66833000  26.75320000  1
  Sc  Sc570  1  9.69639000  21.03630000  3.61158000  1
  Sc  Sc571  1  9.57209000  21.88550000  14.97820000  1
  Sc  Sc572  1  9.88185000  20.88570000  25.32780000  1
  Sc  Sc573  1  9.65755000  0.37879400  3.31171000  1
  Sc  Sc574  1  9.04793000  31.76000000  14.53910000  1
  Sc  Sc575  1  10.14240000  -0.10094500  26.61140000  1
  Sc  Sc576  1  21.06700000  9.76018000  4.46073000  1
  Sc  Sc577  1  20.74300000  9.71198000  15.47120000  1
  Sc  Sc578  1  20.73180000  9.67921000  26.83720000  1
  Sc  Sc579  1  20.67090000  22.26090000  4.61809000  1
  Sc  Sc580  1  21.31770000  20.16060000  15.20280000  1
  Sc  Sc581  1  19.15410000  19.60110000  27.44360000  1
  Sc  Sc582  1  20.15400000  31.38370000  5.09801000  1
  Sc  Sc583  1  22.55590000  30.67450000  16.43430000  1
  Sc  Sc584  1  21.41820000  31.29510000  27.50230000  1
  Sc  Sc585  1  31.39100000  10.22720000  3.43887000  1
  Sc  Sc586  1  -0.98965400  9.75636000  15.27120000  1
  Sc  Sc587  1  31.61520000  9.38825000  26.27430000  1
  Sc  Sc588  1  31.73030000  20.43240000  4.54049000  1
  Sc  Sc589  1  0.58638700  22.16820000  15.78220000  1
  Sc  Sc590  1  30.79160000  21.52780000  28.04590000  1
  Sc  Sc591  1  30.82570000  -0.56603600  3.39594000  1
  Sc  Sc592  1  30.59290000  -0.74170600  14.53280000  1
  Sc  Sc593  1  31.13890000  -0.05280850  25.68240000  1
  Cl  Cl594  1  1.63562000  2.09426000  0.53807200  1
  Cl  Cl595  1  1.71382000  2.30652000  12.16740000  1
  Cl  Cl596  1  1.90645000  2.19958000  23.65960000  1
  Cl  Cl597  1  2.37855000  13.63400000  0.55239000  1
  Cl  Cl598  1  0.78197200  14.01510000  13.03000000  1
  Cl  Cl599  1  1.27427000  13.96820000  22.91010000  1
  Cl  Cl600  1  0.95785500  25.41130000  2.43890000  1
  Cl  Cl601  1  2.76254000  26.27300000  12.93660000  1
  Cl  Cl602  1  1.25759000  26.00970000  25.22180000  1
  Cl  Cl603  1  11.26330000  2.24809000  2.54662000  1
  Cl  Cl604  1  12.10050000  2.05197000  11.87200000  1
  Cl  Cl605  1  11.60880000  1.44957000  25.24050000  1
  Cl  Cl606  1  12.86550000  13.25610000  1.28489000  1
  Cl  Cl607  1  11.56230000  13.79390000  11.51160000  1
  Cl  Cl608  1  12.15890000  12.59160000  23.40320000  1
  Cl  Cl609  1  13.47230000  25.10140000  2.18857000  1
  Cl  Cl610  1  11.27580000  23.07800000  13.69000000  1
  Cl  Cl611  1  12.36660000  25.59750000  23.18820000  1
  Cl  Cl612  1  22.55170000  1.50809000  1.61098000  1
  Cl  Cl613  1  23.02460000  1.02579000  13.05620000  1
  Cl  Cl614  1  22.87880000  1.54651000  23.80740000  1
  Cl  Cl615  1  23.94470000  14.20020000  3.62091000  1
  Cl  Cl616  1  25.38820000  15.20890000  12.83230000  1
  Cl  Cl617  1  22.97890000  13.08290000  23.80950000  1
  Cl  Cl618  1  21.99390000  23.74910000  3.21346000  1
  Cl  Cl619  1  23.93550000  23.00780000  13.01240000  1
  Cl  Cl620  1  23.06420000  23.77850000  23.20990000  1
  Cl  Cl621  1  6.65412000  5.11338000  4.21629000  1
  Cl  Cl622  1  7.12648000  5.02809000  15.41430000  1
  Cl  Cl623  1  7.71894000  4.83367000  27.84910000  1
  Cl  Cl624  1  7.59182000  15.65720000  4.58678000  1
  Cl  Cl625  1  7.08917000  17.23400000  16.53840000  1
  Cl  Cl626  1  7.14328000  15.17700000  26.38470000  1
  Cl  Cl627  1  7.52590000  26.97050000  3.82235000  1
  Cl  Cl628  1  7.55517000  27.26910000  15.32230000  1
  Cl  Cl629  1  6.61649000  26.83210000  25.85700000  1
  Cl  Cl630  1  17.68930000  4.16859000  5.33996000  1
  Cl  Cl631  1  16.42970000  2.40417000  16.92270000  1
  Cl  Cl632  1  18.74980000  5.15953000  29.49840000  1
  Cl  Cl633  1  19.95970000  16.28940000  5.24208000  1
  Cl  Cl634  1  18.79750000  15.07370000  16.17530000  1
  Cl  Cl635  1  17.73680000  15.13950000  26.54020000  1
  Cl  Cl636  1  17.75850000  27.24230000  5.76620000  1
  Cl  Cl637  1  17.37100000  27.39570000  17.81130000  1
  Cl  Cl638  1  19.36940000  24.88220000  30.86540000  1
  Cl  Cl639  1  27.76100000  2.96131000  6.01320000  1
  Cl  Cl640  1  28.63870000  3.90380000  15.11780000  1
  Cl  Cl641  1  27.89280000  5.14741000  27.54520000  1
  Cl  Cl642  1  29.51940000  15.17730000  4.53452000  1
  Cl  Cl643  1  28.90960000  15.15980000  14.89030000  1
  Cl  Cl644  1  26.41590000  12.39380000  28.34160000  1
  Cl  Cl645  1  28.72240000  25.91230000  4.95772000  1
  Cl  Cl646  1  30.00450000  26.98750000  15.74260000  1
  Cl  Cl647  1  29.69150000  27.05910000  27.08710000  1
  Cl  Cl648  1  4.59611000  10.81340000  7.09345000  1
  Cl  Cl649  1  4.24595000  10.30060000  17.87230000  1
  Cl  Cl650  1  5.34643000  8.84034000  29.66750000  1
  Cl  Cl651  1  4.87485000  21.17710000  7.12765000  1
  Cl  Cl652  1  4.41452000  20.64260000  18.65970000  1
  Cl  Cl653  1  5.72686000  20.67990000  29.63110000  1
  Cl  Cl654  1  4.02935000  -0.70770700  6.86071000  1
  Cl  Cl655  1  4.68994000  -1.24210000  18.77030000  1
  Cl  Cl656  1  5.33694000  29.71290000  31.46250000  1
  Cl  Cl657  1  15.80830000  9.94084000  7.55357000  1
  Cl  Cl658  1  15.55060000  9.01393000  19.45790000  1
  Cl  Cl659  1  14.70010000  9.84654000  30.71540000  1
  Cl  Cl660  1  15.66790000  20.26960000  7.37489000  1
  Cl  Cl661  1  16.97170000  20.13640000  19.21380000  1
  Cl  Cl662  1  14.71250000  21.72480000  29.38620000  1
  Cl  Cl663  1  17.31140000  29.54450000  8.20194000  1
  Cl  Cl664  1  15.75910000  32.19060000  17.68510000  1
  Cl  Cl665  1  14.77540000  -0.84830000  29.52550000  1
  Cl  Cl666  1  26.62060000  8.99954000  7.73370000  1
  Cl  Cl667  1  26.82750000  9.94910000  18.29990000  1
  Cl  Cl668  1  25.45850000  9.10350000  29.90680000  1
  Cl  Cl669  1  28.01250000  20.23870000  8.78179000  1
  Cl  Cl670  1  26.86530000  20.45950000  18.55980000  1
  Cl  Cl671  1  26.74120000  19.39160000  30.76690000  1
  Cl  Cl672  1  26.76480000  31.92380000  7.65710000  1
  Cl  Cl673  1  27.30050000  31.99890000  19.04490000  1
  Cl  Cl674  1  24.61410000  -0.29032200  31.56820000  1
  Cl  Cl675  1  -0.63308300  7.83049000  31.99570000  1
  Cl  Cl676  1  31.43080000  7.70815000  9.26928000  1
  Cl  Cl677  1  31.26620000  7.24420000  21.14770000  1
  Cl  Cl678  1  31.30570000  18.54730000  31.74480000  1
  Cl  Cl679  1  -0.53327500  19.40810000  10.57830000  1
  Cl  Cl680  1  0.92152600  18.86280000  19.66960000  1
  Cl  Cl681  1  -0.48734800  -0.70332500  30.24020000  1
  Cl  Cl682  1  -0.75969500  32.28730000  8.05289000  1
  Cl  Cl683  1  30.84940000  29.13990000  19.51430000  1
  Cl  Cl684  1  11.39100000  7.42389000  -1.19608000  1
  Cl  Cl685  1  8.81248000  7.60196000  9.95781000  1
  Cl  Cl686  1  9.31909000  7.42536000  21.10390000  1
  Cl  Cl687  1  9.51216000  18.88850000  31.99840000  1
  Cl  Cl688  1  9.20081000  19.58200000  9.64943000  1
  Cl  Cl689  1  10.17760000  19.68250000  19.49170000  1
  Cl  Cl690  1  10.15120000  29.98150000  31.39060000  1
  Cl  Cl691  1  10.18780000  29.28770000  10.44700000  1
  Cl  Cl692  1  10.29010000  31.94150000  20.95570000  1
  Cl  Cl693  1  20.79950000  6.74018000  32.19750000  1
  Cl  Cl694  1  21.47940000  6.43338000  9.72098000  1
  Cl  Cl695  1  20.70660000  7.13684000  21.10000000  1
  Cl  Cl696  1  20.96940000  18.62240000  -0.26846200  1
  Cl  Cl697  1  20.13680000  16.31050000  8.46146000  1
  Cl  Cl698  1  20.48210000  18.62880000  20.90150000  1
  Cl  Cl699  1  21.78100000  29.84120000  -0.33535300  1
  Cl  Cl700  1  20.72090000  31.24280000  11.68230000  1
  Cl  Cl701  1  21.90620000  28.69300000  21.85370000  1
  Cl  Cl702  1  1.07788000  10.94810000  7.69710000  1
  Cl  Cl703  1  1.86746000  9.75211000  20.74970000  1
  Cl  Cl704  1  2.98144000  9.23691000  31.71490000  1
  Cl  Cl705  1  1.91966000  22.09650000  8.10395000  1
  Cl  Cl706  1  2.77397000  22.79490000  20.66820000  1
  Cl  Cl707  1  2.86489000  20.04530000  31.15360000  1
  Cl  Cl708  1  2.06370000  -0.79115300  9.73615000  1
  Cl  Cl709  1  2.27943000  -0.93360400  20.94080000  1
  Cl  Cl710  1  2.87649000  31.80470000  -0.18011900  1
  Cl  Cl711  1  12.97290000  8.87937000  9.48109000  1
  Cl  Cl712  1  12.77980000  8.92638000  21.33630000  1
  Cl  Cl713  1  14.52440000  9.76040000  0.57906600  1
  Cl  Cl714  1  13.48670000  20.72040000  10.24110000  1
  Cl  Cl715  1  14.21410000  21.75060000  19.20010000  1
  Cl  Cl716  1  12.34720000  20.89970000  32.16570000  1
  Cl  Cl717  1  14.79820000  31.10830000  6.88401000  1
  Cl  Cl718  1  14.00420000  -0.85721700  20.63330000  1
  Cl  Cl719  1  13.63810000  -0.29795700  -0.55465300  1
  Cl  Cl720  1  23.81920000  10.83960000  8.55552000  1
  Cl  Cl721  1  23.99130000  11.28290000  19.41360000  1
  Cl  Cl722  1  24.23930000  7.73037000  -0.81759100  1
  Cl  Cl723  1  25.44710000  18.37520000  8.17500000  1
  Cl  Cl724  1  24.68140000  20.46560000  20.96670000  1
  Cl  Cl725  1  24.01060000  20.47380000  -1.06305000  1
  Cl  Cl726  1  24.45310000  -0.52945900  9.43818000  1
  Cl  Cl727  1  25.25180000  0.38589700  20.69300000  1
  Cl  Cl728  1  25.43300000  29.83590000  32.03630000  1
  Cl  Cl729  1  6.47614000  7.13042000  6.59140000  1
  Cl  Cl730  1  7.25669000  6.73735000  18.10180000  1
  Cl  Cl731  1  8.38157000  7.86988000  28.02440000  1
  Cl  Cl732  1  9.09070000  17.63330000  6.79072000  1
  Cl  Cl733  1  6.40167000  15.13000000  20.80800000  1
  Cl  Cl734  1  7.58134000  17.60510000  28.29910000  1
  Cl  Cl735  1  9.35944000  28.76690000  6.42149000  1
  Cl  Cl736  1  9.34432000  29.97600000  16.03710000  1
  Cl  Cl737  1  7.48754000  28.22000000  28.85050000  1
  Cl  Cl738  1  18.96010000  6.55807000  7.20803000  1
  Cl  Cl739  1  19.03240000  4.34793000  17.53000000  1
  Cl  Cl740  1  15.12270000  5.07878000  30.55180000  1
  Cl  Cl741  1  17.43990000  17.31260000  6.58077000  1
  Cl  Cl742  1  18.35440000  16.34530000  19.37310000  1
  Cl  Cl743  1  17.08500000  18.06870000  28.05950000  1
  Cl  Cl744  1  20.01280000  29.44170000  6.78595000  1
  Cl  Cl745  1  15.36190000  26.13720000  20.14170000  1
  Cl  Cl746  1  19.07610000  28.30940000  30.39870000  1
  Cl  Cl747  1  28.57780000  5.64284000  8.54768000  1
  Cl  Cl748  1  25.88820000  5.51709000  16.22410000  1
  Cl  Cl749  1  29.56270000  6.03100000  30.34550000  1
  Cl  Cl750  1  31.48480000  18.15750000  5.77365000  1
  Cl  Cl751  1  30.62180000  17.78830000  17.17370000  1
  Cl  Cl752  1  26.44810000  16.00620000  28.60990000  1
  Cl  Cl753  1  26.64440000  27.19280000  7.67232000  1
  Cl  Cl754  1  28.45480000  28.64760000  17.90030000  1
  Cl  Cl755  1  29.69990000  29.32000000  29.27560000  1
  Cl  Cl756  1  3.62152000  1.12695000  3.85742000  1
  Cl  Cl757  1  4.02725000  0.88008400  15.84600000  1
  Cl  Cl758  1  4.41452000  1.57063000  26.88120000  1
  Cl  Cl759  1  4.60574000  12.73990000  3.17843000  1
  Cl  Cl760  1  5.55054000  14.48400000  16.89010000  1
  Cl  Cl761  1  4.94509000  13.79810000  28.01470000  1
  Cl  Cl762  1  3.72254000  23.20920000  3.66648000  1
  Cl  Cl763  1  3.98948000  27.25690000  16.30570000  1
  Cl  Cl764  1  5.10261000  24.43860000  27.33380000  1
  Cl  Cl765  1  14.43980000  1.37504000  5.30780000  1
  Cl  Cl766  1  14.47150000  -0.59115100  14.31190000  1
  Cl  Cl767  1  15.72270000  0.04215700  25.65220000  1
  Cl  Cl768  1  15.19060000  11.68390000  4.13316000  1
  Cl  Cl769  1  16.25770000  12.70270000  17.34860000  1
  Cl  Cl770  1  15.40040000  11.82740000  26.60950000  1
  Cl  Cl771  1  15.49740000  20.35930000  3.92820000  1
  Cl  Cl772  1  15.09110000  21.39660000  15.59790000  1
  Cl  Cl773  1  14.83030000  23.87580000  25.55670000  1
  Cl  Cl774  1  25.29280000  0.25876800  4.54702000  1
  Cl  Cl775  1  26.20720000  2.22665000  17.03970000  1
  Cl  Cl776  1  26.55580000  0.24834300  26.95470000  1
  Cl  Cl777  1  26.65000000  12.48610000  5.17149000  1
  Cl  Cl778  1  26.21470000  12.50930000  15.09710000  1
  Cl  Cl779  1  28.20550000  11.55980000  24.69920000  1
  Cl  Cl780  1  25.87840000  21.44920000  5.44790000  1
  Cl  Cl781  1  27.05080000  22.10770000  15.19410000  1
  Cl  Cl782  1  24.69870000  22.97360000  29.55240000  1
  Cl  Cl783  1  -0.60939900  5.12286000  0.27703300  1
  Cl  Cl784  1  -0.63224400  4.47189000  12.62300000  1
  Cl  Cl785  1  -0.17343000  5.00108000  23.19750000  1
  Cl  Cl786  1  -0.45494000  15.79470000  0.46584300  1
  Cl  Cl787  1  -0.04968270  17.04220000  13.03310000  1
  Cl  Cl788  1  0.25094300  17.05770000  22.43560000  1
  Cl  Cl789  1  31.16690000  27.17620000  1.25414000  1
  Cl  Cl790  1  -0.27113900  26.68150000  11.84910000  1
  Cl  Cl791  1  31.60760000  27.47860000  23.81760000  1
  Cl  Cl792  1  10.53920000  5.44747000  1.75564000  1
  Cl  Cl793  1  10.40290000  5.24067000  12.06970000  1
  Cl  Cl794  1  11.38530000  1.67864000  22.18560000  1
  Cl  Cl795  1  10.95120000  15.71470000  0.75006100  1
  Cl  Cl796  1  11.80760000  17.10700000  10.22560000  1
  Cl  Cl797  1  9.80072000  15.19350000  23.94330000  1
  Cl  Cl798  1  11.08770000  27.34830000  3.34235000  1
  Cl  Cl799  1  10.09510000  26.09820000  12.42720000  1
  Cl  Cl800  1  10.35590000  28.65050000  23.12530000  1
  Cl  Cl801  1  20.75550000  4.44178000  1.84692000  1
  Cl  Cl802  1  20.91390000  3.75472000  12.68090000  1
  Cl  Cl803  1  21.41920000  3.79736000  22.64980000  1
  Cl  Cl804  1  21.96120000  16.24050000  2.53274000  1
  Cl  Cl805  1  22.46950000  14.76070000  13.39040000  1
  Cl  Cl806  1  21.24980000  15.66360000  23.24980000  1
  Cl  Cl807  1  23.55930000  26.90730000  3.70687000  1
  Cl  Cl808  1  21.58940000  26.02220000  12.90020000  1
  Cl  Cl809  1  21.48620000  26.43440000  24.45140000  1
  Cl  Cl810  1  3.72984000  8.35324000  4.51344000  1
  Cl  Cl811  1  4.55670000  10.81040000  13.80340000  1
  Cl  Cl812  1  5.17085000  6.74713000  27.15220000  1
  Cl  Cl813  1  6.23556000  17.46090000  7.32727000  1
  Cl  Cl814  1  6.93703000  17.92000000  19.82420000  1
  Cl  Cl815  1  4.37776000  20.38890000  26.45320000  1
  Cl  Cl816  1  6.58141000  29.43190000  5.41980000  1
  Cl  Cl817  1  6.45104000  30.11330000  16.63390000  1
  Cl  Cl818  1  4.67039000  30.36560000  26.72620000  1
  Cl  Cl819  1  15.95720000  6.39320000  6.17290000  1
  Cl  Cl820  1  15.59170000  6.99199000  15.97960000  1
  Cl  Cl821  1  15.47520000  7.66562000  26.48140000  1
  Cl  Cl822  1  17.72900000  14.14440000  4.90043000  1
  Cl  Cl823  1  15.94560000  17.67640000  15.44870000  1
  Cl  Cl824  1  14.30980000  18.34350000  25.44200000  1
  Cl  Cl825  1  15.16590000  32.06330000  2.90596000  1
  Cl  Cl826  1  17.12590000  30.65340000  14.67940000  1
  Cl  Cl827  1  15.50240000  30.02810000  26.56990000  1
  Cl  Cl828  1  26.45200000  6.72929000  4.61741000  1
  Cl  Cl829  1  26.15530000  8.46330000  14.64580000  1
  Cl  Cl830  1  26.32220000  8.44531000  26.13680000  1
  Cl  Cl831  1  28.32310000  18.32650000  6.02115000  1
  Cl  Cl832  1  27.83140000  17.55270000  16.66960000  1
  Cl  Cl833  1  25.69460000  18.86360000  26.83690000  1
  Cl  Cl834  1  26.02060000  29.96540000  4.37512000  1
  Cl  Cl835  1  24.22880000  29.28710000  17.23030000  1
  Cl  Cl836  1  26.82660000  29.51520000  26.12760000  1
  Cl  Cl837  1  5.84146000  4.98136000  8.82508000  1
  Cl  Cl838  1  6.78971000  4.19193000  19.94480000  1
  Cl  Cl839  1  7.27420000  8.04259000  31.17290000  1
  Cl  Cl840  1  7.89067000  15.32620000  9.31385000  1
  Cl  Cl841  1  12.23650000  14.74950000  17.76570000  1
  Cl  Cl842  1  6.61504000  15.45100000  31.08820000  1
  Cl  Cl843  1  7.36491000  27.21320000  8.59867000  1
  Cl  Cl844  1  8.74784000  29.80120000  19.15880000  1
  Cl  Cl845  1  6.78503000  25.69160000  30.46870000  1
  Cl  Cl846  1  17.78990000  4.80344000  9.88033000  1
  Cl  Cl847  1  18.19070000  4.24997000  20.77890000  1
  Cl  Cl848  1  17.28960000  4.32661000  -0.89512900  1
  Cl  Cl849  1  17.73460000  14.73580000  9.15277000  1
  Cl  Cl850  1  17.54190000  13.08370000  20.27560000  1
  Cl  Cl851  1  17.94040000  16.39980000  31.08580000  1
  Cl  Cl852  1  19.33240000  28.30040000  10.18180000  1
  Cl  Cl853  1  18.43240000  26.33970000  20.76190000  1
  Cl  Cl854  1  16.74640000  27.06880000  27.54680000  1
  Cl  Cl855  1  28.45750000  3.18605000  10.68670000  1
  Cl  Cl856  1  28.59540000  6.23261000  17.68120000  1
  Cl  Cl857  1  27.92910000  3.76676000  32.15390000  1
  Cl  Cl858  1  30.62210000  16.93730000  8.60665000  1
  Cl  Cl859  1  30.17350000  15.88760000  19.43700000  1
  Cl  Cl860  1  28.97750000  15.56210000  30.90930000  1
  Cl  Cl861  1  29.06760000  26.22250000  9.70540000  1
  Cl  Cl862  1  29.34760000  26.47860000  20.37160000  1
  Cl  Cl863  1  28.55050000  27.12490000  31.76190000  1
  Cl  Cl864  1  9.73511000  -0.64666900  8.29331000  1
  Cl  Cl865  1  8.82154000  -0.74930900  16.82930000  1
  Cl  Cl866  1  9.35102000  0.51455700  28.96170000  1
  Cl  Cl867  1  9.96742000  10.00760000  6.49494000  1
  Cl  Cl868  1  10.24150000  9.59622000  17.70060000  1
  Cl  Cl869  1  10.04860000  10.38510000  29.11240000  1
  Cl  Cl870  1  9.28740000  21.30440000  6.18101000  1
  Cl  Cl871  1  10.82280000  22.63100000  16.90590000  1
  Cl  Cl872  1  10.32330000  21.31560000  27.73700000  1
  Cl  Cl873  1  20.58190000  -1.22711000  7.85827000  1
  Cl  Cl874  1  22.20370000  31.54720000  18.70130000  1
  Cl  Cl875  1  21.00730000  31.83450000  29.76880000  1
  Cl  Cl876  1  20.36340000  10.14810000  6.87193000  1
  Cl  Cl877  1  21.32440000  9.85373000  18.03000000  1
  Cl  Cl878  1  20.06090000  9.70689000  29.12340000  1
  Cl  Cl879  1  22.34840000  22.52700000  6.66108000  1
  Cl  Cl880  1  21.13290000  22.09370000  16.64510000  1
  Cl  Cl881  1  18.98010000  20.08870000  29.94370000  1
  Cl  Cl882  1  30.20690000  -0.88016500  5.84759000  1
  Cl  Cl883  1  30.91710000  -0.43073200  18.91380000  1
  Cl  Cl884  1  30.54030000  0.13110000  28.08640000  1
  Cl  Cl885  1  30.75340000  11.20580000  7.69335000  1
  Cl  Cl886  1  -0.80374000  10.41340000  17.50390000  1
  Cl  Cl887  1  -0.53944500  9.95346000  28.77760000  1
  Cl  Cl888  1  31.42750000  21.14400000  6.93679000  1
  Cl  Cl889  1  1.01891000  22.85090000  18.00810000  1
  Cl  Cl890  1  -0.53707100  21.88570000  30.00890000  1
  Cl  Cl891  1  -0.74360700  1.24023000  9.57112000  1
  Cl  Cl892  1  -0.92767100  2.36129000  20.52960000  1
  Cl  Cl893  1  31.26200000  1.72689000  31.73040000  1
  Cl  Cl894  1  -0.11658700  13.48640000  9.37435000  1
  Cl  Cl895  1  -0.97234500  11.80800000  20.05450000  1
  Cl  Cl896  1  -0.80704000  11.72420000  31.60150000  1
  Cl  Cl897  1  -0.76161900  23.28370000  9.66518000  1
  Cl  Cl898  1  -0.29219700  22.54700000  21.23560000  1
  Cl  Cl899  1  31.39990000  23.40360000  -1.00544000  1
  Cl  Cl900  1  8.98482000  2.29814000  9.53888000  1
  Cl  Cl901  1  9.65915000  1.03340000  19.16190000  1
  Cl  Cl902  1  9.41129000  2.40701000  31.58510000  1
  Cl  Cl903  1  10.40950000  11.88880000  9.10724000  1
  Cl  Cl904  1  9.66732000  12.18810000  20.80290000  1
  Cl  Cl905  1  10.29720000  12.41750000  31.60710000  1
  Cl  Cl906  1  8.69989000  23.35980000  8.90362000  1
  Cl  Cl907  1  10.11250000  23.95320000  19.78620000  1
  Cl  Cl908  1  9.82943000  23.64740000  30.56590000  1
  Cl  Cl909  1  20.01860000  1.37272000  10.12630000  1
  Cl  Cl910  1  21.42160000  -0.55661000  21.22300000  1
  Cl  Cl911  1  20.91370000  -0.08939510  -1.05765000  1
  Cl  Cl912  1  21.19220000  10.22080000  9.81148000  1
  Cl  Cl913  1  21.20580000  11.65430000  20.77630000  1
  Cl  Cl914  1  20.55890000  12.56740000  32.20410000  1
  Cl  Cl915  1  20.91490000  22.48460000  9.56833000  1
  Cl  Cl916  1  21.72270000  22.08410000  19.79560000  1
  Cl  Cl917  1  19.49650000  22.74610000  -0.57156800  1
  Cl  Cl918  1  4.06410000  4.21622000  1.37280000  1
  Cl  Cl919  1  4.01699000  5.02921000  12.20050000  1
  Cl  Cl920  1  4.41348000  4.24801000  23.57050000  1
  Cl  Cl921  1  4.13545000  16.41760000  1.39884000  1
  Cl  Cl922  1  4.15213000  15.12520000  13.42470000  1
  Cl  Cl923  1  2.70425000  14.81440000  25.71750000  1
  Cl  Cl924  1  3.06357000  27.02250000  0.31993600  1
  Cl  Cl925  1  3.83361000  29.31270000  12.03650000  1
  Cl  Cl926  1  3.53951000  27.02840000  23.09110000  1
  Cl  Cl927  1  14.60680000  3.41324000  1.95091000  1
  Cl  Cl928  1  13.79820000  2.80750000  14.43120000  1
  Cl  Cl929  1  12.90050000  4.72499000  25.55400000  1
  Cl  Cl930  1  15.52270000  15.58190000  1.90948000  1
  Cl  Cl931  1  13.13960000  15.24330000  14.42330000  1
  Cl  Cl932  1  14.09520000  14.97620000  21.98580000  1
  Cl  Cl933  1  14.60000000  27.32150000  0.25704300  1
  Cl  Cl934  1  14.43200000  24.91770000  14.21080000  1
  Cl  Cl935  1  15.04540000  27.44800000  23.48170000  1
  Cl  Cl936  1  25.26350000  3.34158000  2.45933000  1
  Cl  Cl937  1  25.50650000  3.36988000  13.58750000  1
  Cl  Cl938  1  25.22540000  3.02890000  25.50840000  1
  Cl  Cl939  1  26.13450000  14.50220000  1.20146000  1
  Cl  Cl940  1  25.57620000  18.18350000  13.95890000  1
  Cl  Cl941  1  25.84060000  14.89750000  24.62200000  1
  Cl  Cl942  1  23.02480000  23.80070000  0.20831500  1
  Cl  Cl943  1  25.83460000  24.92980000  11.28830000  1
  Cl  Cl944  1  25.51690000  24.09600000  25.42530000  1
  Cl  Cl945  1  0.70914100  10.53110000  2.36387000  1
  Cl  Cl946  1  1.42618000  9.54869000  15.17110000  1
  Cl  Cl947  1  1.34440000  9.12223000  26.14500000  1
  Cl  Cl948  1  1.26903000  19.43550000  4.44286000  1
  Cl  Cl949  1  2.79507000  22.63730000  15.21840000  1
  Cl  Cl950  1  -0.09678940  21.39650000  26.47080000  1
  Cl  Cl951  1  0.28374800  -1.09594000  4.33183000  1
  Cl  Cl952  1  -0.21105100  -0.76072400  13.10370000  1
  Cl  Cl953  1  0.66758200  -1.19100000  26.24580000  1
  Cl  Cl954  1  12.28350000  9.34302000  4.17770000  1
  Cl  Cl955  1  12.17080000  9.96876000  14.83540000  1
  Cl  Cl956  1  11.86160000  9.88406000  26.41960000  1
  Cl  Cl957  1  12.03620000  21.34140000  4.10119000  1
  Cl  Cl958  1  10.52640000  19.82910000  15.77520000  1
  Cl  Cl959  1  12.16090000  21.13720000  24.54940000  1
  Cl  Cl960  1  11.62210000  -0.61732600  4.23128000  1
  Cl  Cl961  1  11.25920000  30.93160000  13.86690000  1
  Cl  Cl962  1  12.46370000  -0.52913000  27.32800000  1
  Cl  Cl963  1  23.26150000  9.81287000  3.58888000  1
  Cl  Cl964  1  22.52760000  9.70254000  13.89550000  1
  Cl  Cl965  1  23.00270000  9.53011000  27.12790000  1
  Cl  Cl966  1  22.54730000  20.77050000  4.47692000  1
  Cl  Cl967  1  23.67270000  20.30260000  15.46450000  1
  Cl  Cl968  1  21.59360000  19.85590000  27.49020000  1
  Cl  Cl969  1  22.35930000  32.13360000  5.38021000  1
  Cl  Cl970  1  24.19730000  -1.02708000  16.45370000  1
  Cl  Cl971  1  23.36310000  -0.79303400  27.14670000  1
  Cl  Cl972  1  0.95642100  5.49702000  6.41134000  1
  Cl  Cl973  1  1.06341000  6.82021000  18.62770000  1
  Cl  Cl974  1  1.53001000  6.73294000  28.81940000  1
  Cl  Cl975  1  2.34886000  17.20020000  7.33156000  1
  Cl  Cl976  1  0.75579400  14.54210000  18.94250000  1
  Cl  Cl977  1  -0.45161100  14.63580000  29.63280000  1
  Cl  Cl978  1  1.72729000  29.76870000  6.22670000  1
  Cl  Cl979  1  2.16385000  30.51410000  17.55120000  1
  Cl  Cl980  1  1.97765000  29.97660000  29.12830000  1
  Cl  Cl981  1  11.29340000  5.95440000  7.99191000  1
  Cl  Cl982  1  12.39940000  6.99302000  18.45510000  1
  Cl  Cl983  1  12.60290000  6.95307000  28.88120000  1
  Cl  Cl984  1  12.91050000  18.20990000  6.59129000  1
  Cl  Cl985  1  13.31270000  18.18740000  18.76650000  1
  Cl  Cl986  1  12.75030000  17.86750000  28.79620000  1
  Cl  Cl987  1  12.65210000  27.58470000  7.76491000  1
  Cl  Cl988  1  13.69820000  29.27850000  17.08530000  1
  Cl  Cl989  1  12.62980000  28.86360000  29.22110000  1
  Cl  Cl990  1  21.88690000  7.59442000  5.24611000  1
  Cl  Cl991  1  22.33380000  5.27185000  18.93150000  1
  Cl  Cl992  1  23.09120000  5.58117000  28.98810000  1
  Cl  Cl993  1  22.17880000  18.54180000  7.43550000  1
  Cl  Cl994  1  24.06760000  17.44590000  19.00980000  1
  Cl  Cl995  1  23.19910000  17.52610000  29.82420000  1
  Cl  Cl996  1  23.63450000  29.51550000  7.31701000  1
  Cl  Cl997  1  25.56140000  26.74520000  19.19190000  1
  Cl  Cl998  1  23.56820000  26.83500000  30.29820000  1
  Cl  Cl999  1  5.30814000  0.35268000  0.12828700  1
  Cl  Cl1000  1  4.52928000  -0.34644100  11.57420000  1
  Cl  Cl1001  1  4.12076000  -0.87494300  23.47710000  1
  Cl  Cl1002  1  4.44750000  10.13220000  0.87222900  1
  Cl  Cl1003  1  1.85772000  10.26630000  10.90770000  1
  Cl  Cl1004  1  4.32516000  9.89317000  22.74430000  1
  Cl  Cl1005  1  4.68708000  21.23330000  0.82950600  1
  Cl  Cl1006  1  2.72672000  22.45990000  11.30450000  1
  Cl  Cl1007  1  5.10330000  22.75610000  22.90740000  1
  Cl  Cl1008  1  16.93920000  -0.23487900  0.24473000  1
  Cl  Cl1009  1  14.44000000  -0.35330800  9.24232000  1
  Cl  Cl1010  1  16.37790000  32.30420000  22.48530000  1
  Cl  Cl1011  1  17.81710000  10.93310000  0.97425300  1
  Cl  Cl1012  1  15.06750000  8.63191000  12.14140000  1
  Cl  Cl1013  1  14.26080000  9.37697000  23.89100000  1
  Cl  Cl1014  1  15.30100000  21.57520000  0.64490700  1
  Cl  Cl1015  1  16.22880000  20.73800000  12.13480000  1
  Cl  Cl1016  1  14.24480000  22.62050000  22.15070000  1
  Cl  Cl1017  1  28.03290000  30.94180000  0.29253200  1
  Cl  Cl1018  1  26.79070000  -0.06484960  12.14200000  1
  Cl  Cl1019  1  26.26510000  -0.96258800  23.53230000  1
  Cl  Cl1020  1  27.19780000  7.34177000  0.54279100  1
  Cl  Cl1021  1  25.09960000  11.45970000  11.58710000  1
  Cl  Cl1022  1  24.67990000  9.57134000  22.44440000  1
  Cl  Cl1023  1  26.85630000  20.20640000  1.90432000  1
  Cl  Cl1024  1  24.29170000  18.70950000  11.35270000  1
  Cl  Cl1025  1  27.68180000  21.18710000  23.24060000  1
  Cl  Cl1026  1  7.67125000  1.45332000  2.69104000  1
  Cl  Cl1027  1  6.57129000  2.66787000  12.32370000  1
  Cl  Cl1028  1  7.03497000  1.86099000  23.49390000  1
  Cl  Cl1029  1  7.92859000  13.70080000  1.51792000  1
  Cl  Cl1030  1  6.90687000  12.67950000  11.60730000  1
  Cl  Cl1031  1  6.39073000  12.37590000  24.02300000  1
  Cl  Cl1032  1  6.49799000  25.28870000  0.60746500  1
  Cl  Cl1033  1  6.48719000  26.53800000  11.84730000  1
  Cl  Cl1034  1  7.21664000  26.00130000  22.37420000  1
  Cl  Cl1035  1  18.28570000  2.32899000  2.55760000  1
  Cl  Cl1036  1  18.32970000  0.59217800  13.63830000  1
  Cl  Cl1037  1  18.65540000  1.54787000  24.04050000  1
  Cl  Cl1038  1  18.85660000  14.82850000  0.98928500  1
  Cl  Cl1039  1  19.69540000  11.50770000  14.06500000  1
  Cl  Cl1040  1  18.30660000  12.65640000  23.77570000  1
  Cl  Cl1041  1  17.38320000  24.85480000  1.22693000  1
  Cl  Cl1042  1  17.95550000  23.96500000  12.27050000  1
  Cl  Cl1043  1  18.08810000  24.63400000  24.55970000  1
  Cl  Cl1044  1  30.60440000  1.36011000  1.85223000  1
  Cl  Cl1045  1  29.81050000  1.05480000  13.08320000  1
  Cl  Cl1046  1  28.85280000  4.79731000  21.88930000  1
  Cl  Cl1047  1  30.51420000  12.06880000  2.24798000  1
  Cl  Cl1048  1  30.03710000  13.49090000  11.70030000  1
  Cl  Cl1049  1  29.13610000  14.28480000  22.73360000  1
  Cl  Cl1050  1  29.00810000  23.93410000  1.50590000  1
  Cl  Cl1051  1  29.46840000  24.14440000  13.25450000  1
  Cl  Cl1052  1  29.78110000  24.13040000  23.91160000  1
  Cl  Cl1053  1  8.49071000  4.17562000  7.15762000  1
  Cl  Cl1054  1  9.49370000  3.94922000  17.60710000  1
  Cl  Cl1055  1  8.25472000  5.10535000  30.52990000  1
  Cl  Cl1056  1  10.17840000  14.74390000  6.58717000  1
  Cl  Cl1057  1  9.33191000  15.74910000  18.56360000  1
  Cl  Cl1058  1  9.37647000  15.11530000  28.77400000  1
  Cl  Cl1059  1  9.51741000  26.02310000  6.45276000  1
  Cl  Cl1060  1  10.46950000  27.48200000  17.35920000  1
  Cl  Cl1061  1  9.35481000  25.95520000  28.03850000  1
  Cl  Cl1062  1  19.62110000  3.65477000  7.78957000  1
  Cl  Cl1063  1  19.68110000  1.86433000  20.05900000  1
  Cl  Cl1064  1  19.12960000  2.58085000  31.34180000  1
  Cl  Cl1065  1  21.46130000  13.31210000  10.01690000  1
  Cl  Cl1066  1  20.52250000  14.31530000  19.11420000  1
  Cl  Cl1067  1  20.07670000  14.68320000  29.42570000  1
  Cl  Cl1068  1  21.22430000  26.72690000  7.60006000  1
  Cl  Cl1069  1  22.16020000  25.77160000  19.65130000  1
  Cl  Cl1070  1  16.52090000  26.63230000  31.14680000  1
  Cl  Cl1071  1  30.49290000  3.36536000  7.69187000  1
  Cl  Cl1072  1  -0.32417600  3.88747000  17.58140000  1
  Cl  Cl1073  1  -0.10736600  3.90883000  29.51510000  1
  Cl  Cl1074  1  -0.47840300  15.32230000  6.03543000  1
  Cl  Cl1075  1  31.38080000  14.89560000  16.69590000  1
  Cl  Cl1076  1  28.95340000  14.85730000  27.56780000  1
  Cl  Cl1077  1  29.88650000  28.28730000  7.21449000  1
  Cl  Cl1078  1  -0.34176200  27.69010000  17.32840000  1
  Cl  Cl1079  1  31.72340000  26.71740000  29.87080000  1
  Cl  Cl1080  1  0.77210600  3.97451000  3.17952000  1
  Cl  Cl1081  1  2.15117000  4.63180000  14.73830000  1
  Cl  Cl1082  1  2.00813000  4.40676000  26.11730000  1
  Cl  Cl1083  1  1.38569000  15.64420000  3.11037000  1
  Cl  Cl1084  1  1.70340000  16.19610000  15.48980000  1
  Cl  Cl1085  1  -0.63595000  15.23850000  25.59340000  1
  Cl  Cl1086  1  0.75627900  28.84820000  2.47234000  1
  Cl  Cl1087  1  0.80564100  28.63120000  14.07870000  1
  Cl  Cl1088  1  2.15930000  29.28560000  24.70080000  1
  Cl  Cl1089  1  12.53540000  4.65270000  4.26792000  1
  Cl  Cl1090  1  10.68850000  3.15617000  15.02110000  1
  Cl  Cl1091  1  10.02230000  4.22753000  24.20240000  1
  Cl  Cl1092  1  12.85770000  15.57320000  3.73259000  1
  Cl  Cl1093  1  10.25480000  16.41300000  13.01430000  1
  Cl  Cl1094  1  12.83110000  15.09680000  25.24270000  1
  Cl  Cl1095  1  14.38950000  27.93110000  3.57376000  1
  Cl  Cl1096  1  11.47300000  25.56810000  15.50250000  1
  Cl  Cl1097  1  12.69930000  27.90610000  25.73480000  1
  Cl  Cl1098  1  22.55520000  3.31952000  4.34672000  1
  Cl  Cl1099  1  22.71120000  3.60282000  15.59020000  1
  Cl  Cl1100  1  22.43210000  3.71684000  26.39900000  1
  Cl  Cl1101  1  24.30470000  17.43290000  4.30784000  1
  Cl  Cl1102  1  23.80700000  16.23040000  15.42050000  1
  Cl  Cl1103  1  23.08040000  16.06280000  26.05460000  1
  Cl  Cl1104  1  25.28290000  24.26670000  3.06336000  1
  Cl  Cl1105  1  24.55280000  26.21530000  14.60100000  1
  Cl  Cl1106  1  22.28800000  24.12280000  26.57410000  1
  Cl  Cl1107  1  7.31512000  32.15840000  32.26530000  1
  Cl  Cl1108  1  6.71263000  0.29051200  8.52252000  1
  Cl  Cl1109  1  7.07264000  -0.92938200  21.08450000  1
  Cl  Cl1110  1  7.33407000  10.52250000  -0.21693300  1
  Cl  Cl1111  1  4.92391000  9.73615000  10.25220000  1
  Cl  Cl1112  1  6.54874000  10.08010000  20.04060000  1
  Cl  Cl1113  1  7.15479000  21.97810000  -1.23295000  1
  Cl  Cl1114  1  5.86074000  21.10780000  10.74330000  1
  Cl  Cl1115  1  7.22512000  21.10970000  20.63680000  1
  Cl  Cl1116  1  17.98430000  -0.64827900  30.64360000  1
  Cl  Cl1117  1  16.97690000  31.23920000  11.10510000  1
  Cl  Cl1118  1  18.49210000  31.96020000  19.80470000  1
  Cl  Cl1119  1  18.01100000  11.03170000  31.00030000  1
  Cl  Cl1120  1  17.56650000  9.75924000  10.15720000  1
  Cl  Cl1121  1  17.47110000  9.12635000  22.20120000  1
  Cl  Cl1122  1  16.90710000  22.27780000  31.38080000  1
  Cl  Cl1123  1  18.20700000  20.61220000  9.39515000  1
  Cl  Cl1124  1  17.49540000  21.31370000  22.58570000  1
  Cl  Cl1125  1  27.03710000  0.50216800  0.15422500  1
  Cl  Cl1126  1  29.03840000  31.63090000  9.96058000  1
  Cl  Cl1127  1  29.06850000  31.48310000  21.94130000  1
  Cl  Cl1128  1  28.63770000  8.99040000  31.79030000  1
  Cl  Cl1129  1  27.77600000  9.71341000  10.94750000  1
  Cl  Cl1130  1  27.64280000  8.70129000  21.12100000  1
  Cl  Cl1131  1  28.33920000  18.54620000  0.03144100  1
  Cl  Cl1132  1  26.71830000  20.93710000  11.88990000  1
  Cl  Cl1133  1  29.38760000  20.62610000  20.43100000  1
  Cl  Cl1134  1  2.08269000  4.79495000  -1.22469000  1
  Cl  Cl1135  1  1.69903000  4.72218000  9.97870000  1
  Cl  Cl1136  1  2.13412000  4.67584000  21.40400000  1
  Cl  Cl1137  1  2.17200000  15.80860000  31.89320000  1
  Cl  Cl1138  1  2.16969000  16.08460000  10.79510000  1
  Cl  Cl1139  1  3.29044000  16.52880000  22.93650000  1
  Cl  Cl1140  1  0.51475800  25.65600000  -1.05548000  1
  Cl  Cl1141  1  2.18344000  27.30450000  9.85394000  1
  Cl  Cl1142  1  0.97087700  25.64990000  21.78950000  1
  Cl  Cl1143  1  12.17040000  3.59456000  -0.24036000  1
  Cl  Cl1144  1  13.51070000  4.99757000  11.66870000  1
  Cl  Cl1145  1  14.47600000  2.57635000  23.24160000  1
  Cl  Cl1146  1  14.21120000  15.48000000  -0.96537800  1
  Cl  Cl1147  1  14.51970000  15.24110000  11.27590000  1
  Cl  Cl1148  1  11.45030000  14.52500000  20.73450000  1
  Cl  Cl1149  1  11.42310000  26.52420000  0.20240800  1
  Cl  Cl1150  1  12.89640000  24.98700000  10.93320000  1
  Cl  Cl1151  1  12.50470000  27.75710000  20.98980000  1
  Cl  Cl1152  1  23.08810000  3.86715000  -0.34986100  1
  Cl  Cl1153  1  23.24800000  3.50107000  10.78570000  1
  Cl  Cl1154  1  24.81290000  4.20116000  22.48600000  1
  Cl  Cl1155  1  23.49030000  15.28680000  0.24308300  1
  Cl  Cl1156  1  22.98240000  16.17050000  10.88940000  1
  Cl  Cl1157  1  24.27420000  15.26740000  21.60500000  1
  Cl  Cl1158  1  21.35990000  26.20520000  1.21887000  1
  Cl  Cl1159  1  22.61500000  24.76200000  10.26590000  1
  Cl  Cl1160  1  24.81480000  26.58660000  23.23070000  1
  Cl  Cl1161  1  10.41840000  9.81003000  1.71372000  1
  Cl  Cl1162  1  9.54070000  10.88630000  13.05440000  1
  Cl  Cl1163  1  9.32062000  9.95133000  24.30060000  1
  Cl  Cl1164  1  10.11090000  21.32730000  1.32861000  1
  Cl  Cl1165  1  9.78013000  20.64140000  12.92030000  1
  Cl  Cl1166  1  9.66208000  20.93680000  22.98750000  1
  Cl  Cl1167  1  10.23880000  -0.14786400  0.95252900  1
  Cl  Cl1168  1  9.21392000  -0.64103900  12.39580000  1
  Cl  Cl1169  1  10.35040000  -1.17820000  24.46760000  1
  Cl  Cl1170  1  20.34840000  11.89620000  3.41999000  1
  Cl  Cl1171  1  19.91700000  8.62648000  13.55110000  1
  Cl  Cl1172  1  21.36820000  9.65684000  24.64030000  1
  Cl  Cl1173  1  20.46910000  20.98660000  2.58076000  1
  Cl  Cl1174  1  20.86610000  21.12120000  13.11150000  1
  Cl  Cl1175  1  19.25640000  19.22420000  25.09510000  1
  Cl  Cl1176  1  20.70900000  -1.35350000  2.78531000  1
  Cl  Cl1177  1  23.88340000  30.54240000  14.16950000  1
  Cl  Cl1178  1  21.05700000  31.41750000  25.20870000  1
  Cl  Cl1179  1  30.61320000  8.88624000  1.68509000  1
  Cl  Cl1180  1  31.51790000  10.03200000  12.94510000  1
  Cl  Cl1181  1  -0.35601800  10.36540000  24.09170000  1
  Cl  Cl1182  1  -0.17098700  21.35440000  2.44533000  1
  Cl  Cl1183  1  -0.19563700  21.53140000  13.67130000  1
  Cl  Cl1184  1  29.33530000  21.75640000  26.24640000  1
  Cl  Cl1185  1  -0.69372700  -1.11904000  1.38569000  1
  Cl  Cl1186  1  29.58480000  31.05500000  13.24390000  1
  Cl  Cl1187  1  -0.85534300  -0.30598500  23.56420000  1
  Cl  Cl1188  1  4.03658000  4.55240000  6.23805000  1
  Cl  Cl1189  1  4.73022000  4.38322000  17.58880000  1
  Cl  Cl1190  1  5.05271000  5.42975000  30.41510000  1
  Cl  Cl1191  1  5.71149000  14.52960000  7.02782000  1
  Cl  Cl1192  1  4.37502000  16.60910000  18.56530000  1
  Cl  Cl1193  1  4.77980000  16.78340000  28.78380000  1
  Cl  Cl1194  1  4.93728000  27.36640000  6.64812000  1
  Cl  Cl1195  1  6.00356000  28.09370000  18.92790000  1
  Cl  Cl1196  1  4.43863000  26.84510000  28.71070000  1
  Cl  Cl1197  1  15.01730000  4.06225000  8.21233000  1
  Cl  Cl1198  1  15.85500000  4.38374000  19.16390000  1
  Cl  Cl1199  1  15.69120000  3.35818000  28.32250000  1
  Cl  Cl1200  1  15.73840000  14.54960000  7.10926000  1
  Cl  Cl1201  1  15.70060000  15.18230000  18.48850000  1
  Cl  Cl1202  1  15.42590000  15.27740000  29.13670000  1
  Cl  Cl1203  1  16.71370000  26.49590000  8.67548000  1
  Cl  Cl1204  1  16.37330000  24.64320000  16.80030000  1
  Cl  Cl1205  1  19.80420000  26.06560000  27.94770000  1
  Cl  Cl1206  1  25.89970000  4.61841000  8.17544000  1
  Cl  Cl1207  1  26.49300000  4.25081000  19.32460000  1
  Cl  Cl1208  1  26.14360000  2.89098000  29.25050000  1
  Cl  Cl1209  1  27.58580000  15.66520000  7.25650000  1
  Cl  Cl1210  1  27.23600000  14.77860000  18.21060000  1
  Cl  Cl1211  1  26.52440000  13.90380000  31.31160000  1
  Cl  Cl1212  1  27.57280000  24.04920000  7.45779000  1
  Cl  Cl1213  1  28.70000000  25.29970000  17.55300000  1
  Cl  Cl1214  1  27.06270000  26.82730000  28.91030000  1
  Cl  Cl1215  1  7.69355000  9.88811000  3.73226000  1
  Cl  Cl1216  1  7.62411000  10.43230000  15.82890000  1
  Cl  Cl1217  1  7.19755000  10.34180000  26.61910000  1
  Cl  Cl1218  1  7.27213000  20.93000000  3.47234000  1
  Cl  Cl1219  1  7.82932000  22.73270000  13.54420000  1
  Cl  Cl1220  1  7.59240000  20.76900000  25.95990000  1
  Cl  Cl1221  1  8.25999000  -0.21260400  5.45905000  1
  Cl  Cl1222  1  6.75867000  -1.01079000  14.22980000  1
  Cl  Cl1223  1  7.80121000  -0.54161600  26.07250000  1
  Cl  Cl1224  1  18.60870000  9.41656000  4.43793000  1
  Cl  Cl1225  1  18.52280000  8.99865000  16.36410000  1
  Cl  Cl1226  1  18.49820000  9.61039000  26.25810000  1
  Cl  Cl1227  1  18.71300000  23.28020000  3.63020000  1
  Cl  Cl1228  1  19.02620000  19.41240000  15.52400000  1
  Cl  Cl1229  1  17.25320000  20.76390000  26.71340000  1
  Cl  Cl1230  1  18.02550000  30.66250000  4.30158000  1
  Cl  Cl1231  1  21.12300000  29.57910000  14.85060000  1
  Cl  Cl1232  1  19.84640000  29.48370000  27.16020000  1
  Cl  Cl1233  1  29.46680000  9.59134000  4.57318000  1
  Cl  Cl1234  1  29.35720000  9.81624000  15.42660000  1
  Cl  Cl1235  1  29.51400000  9.38288000  27.59630000  1
  Cl  Cl1236  1  29.51370000  21.40870000  4.58695000  1
  Cl  Cl1237  1  31.15130000  21.41100000  16.61770000  1
  Cl  Cl1238  1  28.97600000  21.60580000  29.40280000  1
  Cl  Cl1239  1  28.36660000  -0.48580800  3.38211000  1
  Cl  Cl1240  1  28.58330000  -0.61579000  15.97360000  1
  Cl  Cl1241  1  29.72610000  1.76525000  25.02100000  1
  Cl  Cl1242  1  31.03840000  1.39145000  4.84620000  1
  Cl  Cl1243  1  31.64780000  0.65185400  16.19900000  1
  Cl  Cl1244  1  -0.32760800  1.64004000  26.75560000  1
  Cl  Cl1245  1  -0.73337900  12.03600000  5.00109000  1
  Cl  Cl1246  1  -1.09768000  12.19300000  15.52850000  1
  Cl  Cl1247  1  31.50190000  11.79740000  26.82440000  1
  Cl  Cl1248  1  0.01674410  22.57190000  5.06485000  1
  Cl  Cl1249  1  0.26743200  24.55740000  15.32050000  1
  Cl  Cl1250  1  31.51410000  23.93520000  28.19820000  1
  Cl  Cl1251  1  9.85307000  1.94318000  5.15710000  1
  Cl  Cl1252  1  10.58650000  0.20124800  15.01940000  1
  Cl  Cl1253  1  9.15140000  2.20555000  26.98460000  1
  Cl  Cl1254  1  10.31440000  11.85610000  4.44296000  1
  Cl  Cl1255  1  10.15610000  12.38740000  16.61560000  1
  Cl  Cl1256  1  9.64330000  12.15000000  26.98200000  1
  Cl  Cl1257  1  9.60336000  23.27460000  4.38779000  1
  Cl  Cl1258  1  8.83121000  24.16780000  16.01680000  1
  Cl  Cl1259  1  10.08280000  23.22090000  25.88110000  1
  Cl  Cl1260  1  19.09690000  -0.05674810  5.63419000  1
  Cl  Cl1261  1  20.47840000  32.15710000  16.75860000  1
  Cl  Cl1262  1  19.81180000  -0.34594600  27.73110000  1
  Cl  Cl1263  1  22.30830000  11.44230000  5.77094000  1
  Cl  Cl1264  1  22.07120000  11.62110000  16.22570000  1
  Cl  Cl1265  1  19.87230000  11.95660000  27.38970000  1
  Cl  Cl1266  1  20.10340000  24.14070000  6.25979000  1
  Cl  Cl1267  1  21.93060000  25.61070000  16.40930000  1
  Cl  Cl1268  1  19.51900000  22.10600000  28.05340000  1
  Cl  Cl1269  1  5.35805000  7.55281000  0.02722830  1
  Cl  Cl1270  1  2.73659000  8.18593000  8.35586000  1
  Cl  Cl1271  1  4.66890000  7.58227000  20.29950000  1
  Cl  Cl1272  1  5.52103000  18.87610000  -1.01905000  1
  Cl  Cl1273  1  3.49252000  19.51070000  9.69296000  1
  Cl  Cl1274  1  4.37603000  19.92040000  21.88070000  1
  Cl  Cl1275  1  5.53276000  30.53190000  1.37169000  1
  Cl  Cl1276  1  4.03081000  30.54820000  8.64949000  1
  Cl  Cl1277  1  4.56266000  30.23120000  21.71060000  1
  Cl  Cl1278  1  17.31400000  8.33033000  -0.73892500  1
  Cl  Cl1279  1  15.77740000  7.08427000  9.20620000  1
  Cl  Cl1280  1  15.43900000  6.90015000  21.81350000  1
  Cl  Cl1281  1  15.57530000  19.42960000  31.63210000  1
  Cl  Cl1282  1  16.20710000  18.05580000  9.95286000  1
  Cl  Cl1283  1  15.28400000  19.28340000  21.85790000  1
  Cl  Cl1284  1  15.54240000  30.51500000  32.16780000  1
  Cl  Cl1285  1  14.33610000  29.80680000  10.22630000  1
  Cl  Cl1286  1  15.75990000  29.78820000  20.18050000  1
  Cl  Cl1287  1  26.73220000  6.48750000  30.62700000  1
  Cl  Cl1288  1  24.71260000  8.04444000  10.31180000  1
  Cl  Cl1289  1  24.50140000  7.91770000  19.33980000  1
  Cl  Cl1290  1  25.74780000  17.28560000  -0.99094400  1
  Cl  Cl1291  1  27.67360000  17.78370000  11.02650000  1
  Cl  Cl1292  1  27.07090000  18.29410000  21.40980000  1
  Cl  Cl1293  1  27.60360000  -1.33859000  30.79300000  1
  Cl  Cl1294  1  26.06530000  30.89020000  10.89880000  1
  Cl  Cl1295  1  25.71860000  30.56530000  21.18060000  1
  Cl  Cl1296  1  4.34605000  -0.94917100  30.56280000  1
  Cl  Cl1297  1  3.97005000  1.61417000  9.25209000  1
  Cl  Cl1298  1  4.40507000  1.31600000  20.85300000  1
  Cl  Cl1299  1  5.00668000  11.60100000  31.37690000  1
  Cl  Cl1300  1  3.64174000  12.71030000  9.56097000  1
  Cl  Cl1301  1  4.55921000  12.22100000  20.28340000  1
  Cl  Cl1302  1  3.97091000  23.19240000  31.76190000  1
  Cl  Cl1303  1  4.74706000  24.15980000  8.96680000  1
  Cl  Cl1304  1  5.65228000  23.99860000  19.70070000  1
  Cl  Cl1305  1  16.01610000  1.60625000  31.37850000  1
  Cl  Cl1306  1  17.64150000  -0.69762400  8.51522000  1
  Cl  Cl1307  1  16.60330000  0.95080500  19.95190000  1
  Cl  Cl1308  1  15.93630000  12.78810000  -1.15919000  1
  Cl  Cl1309  1  14.45870000  11.49470000  10.37890000  1
  Cl  Cl1310  1  15.10100000  11.59130000  21.55300000  1
  Cl  Cl1311  1  14.09830000  23.83440000  -1.17565000  1
  Cl  Cl1312  1  15.59410000  22.82040000  9.45244000  1
  Cl  Cl1313  1  16.93090000  23.18180000  19.85440000  1
  Cl  Cl1314  1  24.92290000  31.94950000  1.14976000  1
  Cl  Cl1315  1  26.35400000  1.63173000  8.88204000  1
  Cl  Cl1316  1  28.49440000  0.76893700  21.47390000  1
  Cl  Cl1317  1  25.93650000  10.60190000  -0.47108400  1
  Cl  Cl1318  1  26.82120000  12.00500000  8.86524000  1
  Cl  Cl1319  1  26.75920000  11.78870000  21.29480000  1
  Cl  Cl1320  1  26.82640000  21.78180000  -0.91689300  1
  Cl  Cl1321  1  24.85750000  21.22050000  9.43262000  1
  Cl  Cl1322  1  26.71240000  22.94130000  20.74540000  1
  Cl  Cl1323  1  -0.14585500  8.71922000  4.84100000  1
  Cl  Cl1324  1  31.48690000  7.44803000  15.39990000  1
  Cl  Cl1325  1  31.67860000  7.07536000  26.49490000  1
  Cl  Cl1326  1  30.59430000  19.13020000  2.91460000  1
  Cl  Cl1327  1  1.46184000  19.91200000  16.20020000  1
  Cl  Cl1328  1  30.70200000  19.08500000  28.39590000  1
  Cl  Cl1329  1  30.26530000  30.68200000  3.35651000  1
  Cl  Cl1330  1  31.23140000  31.05350000  15.96620000  1
  Cl  Cl1331  1  29.43540000  31.90880000  25.64360000  1
  Cl  Cl1332  1  9.60710000  7.19247000  4.37800000  1
  Cl  Cl1333  1  9.64675000  8.03182000  15.08500000  1
  Cl  Cl1334  1  10.27300000  7.42964000  25.74240000  1
  Cl  Cl1335  1  10.04010000  18.74090000  3.54586000  1
  Cl  Cl1336  1  7.61826000  21.09470000  16.28520000  1
  Cl  Cl1337  1  10.50560000  18.63040000  25.84860000  1
  Cl  Cl1338  1  8.81029000  31.68190000  2.77611000  1
  Cl  Cl1339  1  7.89121000  29.96750000  13.21650000  1
  Cl  Cl1340  1  9.45386000  31.28460000  27.71200000  1
  Cl  Cl1341  1  20.70960000  8.65352000  2.27112000  1
  Cl  Cl1342  1  21.68630000  7.46594000  16.16800000  1
  Cl  Cl1343  1  20.23710000  7.35098000  27.20050000  1
  Cl  Cl1344  1  19.49150000  20.58820000  5.79868000  1
  Cl  Cl1345  1  21.52260000  19.05650000  17.24430000  1
  Cl  Cl1346  1  19.72280000  17.24360000  28.00780000  1
  Cl  Cl1347  1  21.13520000  29.52670000  4.08677000  1
  Cl  Cl1348  1  20.98160000  29.02670000  17.71030000  1
  Cl  Cl1349  1  22.93090000  29.63680000  27.97720000  1
  Cl  Cl1350  1  6.70002000  2.31065000  6.45137000  1
  Cl  Cl1351  1  7.56137000  2.07927000  17.00650000  1
  Cl  Cl1352  1  6.80388000  2.04169000  30.09630000  1
  Cl  Cl1353  1  8.23387000  13.08320000  7.17371000  1
  Cl  Cl1354  1  7.95919000  13.40710000  18.52370000  1
  Cl  Cl1355  1  7.74807000  13.18780000  29.33280000  1
  Cl  Cl1356  1  7.10420000  24.69630000  6.25331000  1
  Cl  Cl1357  1  8.45767000  26.22100000  18.35730000  1
  Cl  Cl1358  1  7.77872000  23.81600000  27.94860000  1
  Cl  Cl1359  1  17.35200000  2.22063000  7.52222000  1
  Cl  Cl1360  1  18.84960000  0.89704200  17.73940000  1
  Cl  Cl1361  1  18.28480000  1.94205000  28.75450000  1
  Cl  Cl1362  1  20.03430000  13.36950000  7.07830000  1
  Cl  Cl1363  1  19.40680000  12.15460000  17.71750000  1
  Cl  Cl1364  1  17.78160000  13.41650000  29.18270000  1
  Cl  Cl1365  1  19.40740000  25.26500000  9.10273000  1
  Cl  Cl1366  1  19.44350000  24.69030000  18.13020000  1
  Cl  Cl1367  1  17.55030000  23.99330000  28.97300000  1
  Cl  Cl1368  1  28.98470000  0.99083900  8.21157000  1
  Cl  Cl1369  1  29.35490000  2.70529000  18.03420000  1
  Cl  Cl1370  1  29.66560000  2.88670000  29.39100000  1
  Cl  Cl1371  1  30.13350000  14.04830000  7.48706000  1
  Cl  Cl1372  1  29.71430000  13.10290000  18.12240000  1
  Cl  Cl1373  1  29.64480000  12.87430000  29.61840000  1
  Cl  Cl1374  1  30.57370000  24.70310000  7.27874000  1
  Cl  Cl1375  1  -0.95783000  25.24310000  18.99490000  1
  Cl  Cl1376  1  29.64290000  24.70230000  30.18930000  1
  Cl  Cl1377  1  2.14471000  6.70271000  1.60297000  1
  Cl  Cl1378  1  1.32768000  6.86363000  12.72520000  1
  Cl  Cl1379  1  2.79397000  6.76737000  24.31740000  1
  Cl  Cl1380  1  1.37553000  18.32350000  0.70173200  1
  Cl  Cl1381  1  3.38082000  18.03920000  13.39680000  1
  Cl  Cl1382  1  1.46078000  18.05600000  25.28090000  1
  Cl  Cl1383  1  0.32877800  28.84930000  -0.65406000  1
  Cl  Cl1384  1  0.42287000  29.78130000  10.88590000  1
  Cl  Cl1385  1  0.81622200  29.22410000  21.84020000  1
  Cl  Cl1386  1  13.67590000  6.29249000  1.66294000  1
  Cl  Cl1387  1  12.58100000  5.74122000  14.74590000  1
  Cl  Cl1388  1  12.46980000  4.97501000  22.27410000  1
  Cl  Cl1389  1  13.39610000  17.85400000  1.02791000  1
  Cl  Cl1390  1  13.08170000  18.12590000  12.84050000  1
  Cl  Cl1391  1  11.75660000  17.25100000  22.40960000  1
  Cl  Cl1392  1  12.47270000  29.52750000  0.90891200  1
  Cl  Cl1393  1  12.79410000  27.54580000  13.18460000  1
  Cl  Cl1394  1  13.18340000  30.31950000  23.26090000  1
  Cl  Cl1395  1  23.52570000  6.01342000  2.41172000  1
  Cl  Cl1396  1  23.49490000  5.99932000  13.04080000  1
  Cl  Cl1397  1  23.24040000  6.27008000  24.31700000  1
  Cl  Cl1398  1  24.65960000  18.41680000  1.40893000  1
  Cl  Cl1399  1  21.82260000  18.14480000  14.02330000  1
  Cl  Cl1400  1  23.92330000  17.77070000  23.69370000  1
  Cl  Cl1401  1  24.99890000  26.65110000  0.91265200  1
  Cl  Cl1402  1  24.00180000  27.56730000  11.46530000  1
  Cl  Cl1403  1  24.21630000  26.95130000  26.60990000  1
  Cl  Cl1404  1  7.53644000  4.10809000  0.39901300  1
  Cl  Cl1405  1  6.58200000  7.82380000  13.18180000  1
  Cl  Cl1406  1  6.92408000  6.72807000  23.49690000  1
  Cl  Cl1407  1  7.49840000  17.44020000  1.58456000  1
  Cl  Cl1408  1  6.81886000  17.43030000  12.91330000  1
  Cl  Cl1409  1  7.16257000  18.30790000  23.66020000  1
  Cl  Cl1410  1  8.11402000  28.65650000  0.53374800  1
  Cl  Cl1411  1  6.44182000  31.38430000  10.10220000  1
  Cl  Cl1412  1  7.05173000  29.78080000  23.87610000  1
  Cl  Cl1413  1  17.11410000  6.23450000  2.08162000  1
  Cl  Cl1414  1  17.09680000  5.01574000  13.58950000  1
  Cl  Cl1415  1  18.89520000  6.26369000  23.68850000  1
  Cl  Cl1416  1  17.82920000  18.12320000  1.69290000  1
  Cl  Cl1417  1  18.60900000  15.54680000  12.64180000  1
  Cl  Cl1418  1  17.60730000  16.26390000  22.99710000  1
  Cl  Cl1419  1  18.52530000  29.60960000  0.51647900  1
  Cl  Cl1420  1  18.47910000  27.37800000  13.79940000  1
  Cl  Cl1421  1  18.46240000  28.54770000  23.34390000  1
  Cl  Cl1422  1  28.60700000  4.89363000  2.80401000  1
  Cl  Cl1423  1  28.99230000  7.04803000  12.66020000  1
  Cl  Cl1424  1  29.87560000  8.51943000  24.66070000  1
  Cl  Cl1425  1  26.74910000  16.38710000  3.24322000  1
  Cl  Cl1426  1  29.43710000  19.75120000  13.96370000  1
  Cl  Cl1427  1  28.65910000  17.45660000  25.08930000  1
  Cl  Cl1428  1  27.91240000  28.12420000  1.97571000  1
  Cl  Cl1429  1  27.83760000  27.99520000  12.78460000  1
  Cl  Cl1430  1  28.49150000  28.22610000  23.31020000  1
  Cl  Cl1431  1  0.67696200  1.60055000  6.68296000  1
  Cl  Cl1432  1  1.23216000  1.16935000  18.34100000  1
  Cl  Cl1433  1  1.61929000  1.32960000  29.18390000  1
  Cl  Cl1434  1  2.09002000  13.52120000  6.64224000  1
  Cl  Cl1435  1  1.65380000  12.68340000  16.83570000  1
  Cl  Cl1436  1  1.60065000  12.46970000  29.11280000  1
  Cl  Cl1437  1  1.26135000  24.94420000  6.75365000  1
  Cl  Cl1438  1  2.53685000  25.59890000  18.88260000  1
  Cl  Cl1439  1  1.66032000  24.61230000  29.59500000  1
  Cl  Cl1440  1  11.38970000  1.75826000  7.55497000  1
  Cl  Cl1441  1  12.26710000  1.22680000  17.64090000  1
  Cl  Cl1442  1  10.98690000  4.04925000  29.07890000  1
  Cl  Cl1443  1  12.69840000  12.33870000  6.69968000  1
  Cl  Cl1444  1  12.43080000  11.84010000  19.17150000  1
  Cl  Cl1445  1  12.42820000  12.96400000  29.06470000  1
  Cl  Cl1446  1  11.73740000  23.70220000  7.45853000  1
  Cl  Cl1447  1  12.72540000  25.06060000  18.24060000  1
  Cl  Cl1448  1  12.36470000  24.47480000  28.72540000  1
  Cl  Cl1449  1  21.77480000  1.42557000  7.45980000  1
  Cl  Cl1450  1  22.32410000  1.28734000  18.55020000  1
  Cl  Cl1451  1  21.93040000  1.64936000  29.81650000  1
  Cl  Cl1452  1  23.15320000  13.79920000  7.41826000  1
  Cl  Cl1453  1  23.31460000  13.95830000  17.99550000  1
  Cl  Cl1454  1  22.12350000  12.01680000  29.36130000  1
  Cl  Cl1455  1  23.78730000  24.96950000  7.57442000  1
  Cl  Cl1456  1  23.95000000  23.32850000  17.97370000  1
  Cl  Cl1457  1  21.31930000  22.05480000  30.61370000  1
