
#======================================================================
# CRYSTAL DATA
#----------------------------------------------------------------------
data_VESTA_phase_1

_chemical_name_common                  'Li11 Sc5 Cl32'
_cell_length_a                         10.403700
_cell_length_b                         10.403700
_cell_length_c                         10.403700
_cell_angle_alpha                      90.000000
_cell_angle_beta                       90.000000
_cell_angle_gamma                      90.000000
_cell_volume                           1126.064963
_space_group_name_H-M_alt              'P 1'
_space_group_IT_number                 1

loop_
_space_group_symop_operation_xyz
   'x, y, z'

loop_
   _atom_site_label
   _atom_site_occupancy
   _atom_site_fract_x
   _atom_site_fract_y
   _atom_site_fract_z
   _atom_site_adp_type
   _atom_site_U_iso_or_equiv
   _atom_site_type_symbol
   Sc0        1.0     0.500000     0.500000     0.500000    Uiso  ? Sc
   Li1        1.0     0.500000     0.750000     0.750000    Uiso  ? Li
   Li2        1.0     0.250000     0.750000     0.000000    Uiso  ? Li
   Li3        1.0     0.250000     0.250000     0.500000    Uiso  ? Li
   Li4        1.0     0.750000     0.250000     0.000000    Uiso  ? Li
   Li5        1.0     0.500000     0.250000     0.250000    Uiso  ? Li
   Li6        1.0     0.000000     0.750000     0.250000    Uiso  ? Li
   Li7        1.0     0.750000     0.750000     0.500000    Uiso  ? Li
   Li8        1.0     0.250000     0.000000     0.750000    Uiso  ? Li
   Li9        1.0     0.750000     0.000000     0.250000    Uiso  ? Li
   Sc10       1.0     0.000000     0.500000     0.000000    Uiso  ? Sc
   Li11       1.0     0.250000     0.500000     0.250000    Uiso  ? Li
   Li12       1.0     0.750000     0.500000     0.750000    Uiso  ? Li
   Li13       1.0     0.000000     0.250000     0.750000    Uiso  ? Li
   Sc14       1.0     0.500000     0.000000     0.000000    Uiso  ? Sc
   Sc15       1.0     0.000000     0.000000     0.500000    Uiso  ? Sc
   Cl16       1.0     0.250000     0.250000     0.250000    Uiso  ? Cl
   Cl17       1.0     0.750000     0.500000     0.500000    Uiso  ? Cl
   Cl18       1.0     0.500000     0.000000     0.750000    Uiso  ? Cl
   Cl19       1.0     0.000000     0.750000     0.000000    Uiso  ? Cl
   Cl20       1.0     0.250000     0.000000     0.000000    Uiso  ? Cl
   Cl21       1.0     0.750000     0.750000     0.750000    Uiso  ? Cl
   Cl22       1.0     0.500000     0.250000     0.500000    Uiso  ? Cl
   Cl23       1.0     0.000000     0.500000     0.250000    Uiso  ? Cl
   Cl24       1.0     0.500000     0.750000     0.500000    Uiso  ? Cl
   Cl25       1.0     0.750000     0.500000     0.000000    Uiso  ? Cl
   Cl26       1.0     0.000000     0.000000     0.750000    Uiso  ? Cl
   Cl27       1.0     0.000000     0.250000     0.000000    Uiso  ? Cl
   Cl28       1.0     0.500000     0.500000     0.250000    Uiso  ? Cl
   Cl29       1.0     0.250000     0.000000     0.500000    Uiso  ? Cl
   Cl30       1.0     0.250000     0.750000     0.750000    Uiso  ? Cl
   Cl31       1.0     0.500000     0.000000     0.250000    Uiso  ? Cl
   Cl32       1.0     0.750000     0.250000     0.250000    Uiso  ? Cl
   Cl33       1.0     0.000000     0.500000     0.750000    Uiso  ? Cl
   Cl34       1.0     0.250000     0.500000     0.500000    Uiso  ? Cl
   Cl35       1.0     0.750000     0.000000     0.000000    Uiso  ? Cl
   Cl36       1.0     0.250000     0.500000     0.000000    Uiso  ? Cl
   Cl37       1.0     0.000000     0.000000     0.250000    Uiso  ? Cl
   Cl38       1.0     0.500000     0.500000     0.750000    Uiso  ? Cl
   Cl39       1.0     0.750000     0.000000     0.500000    Uiso  ? Cl
   Cl40       1.0     0.000000     0.250000     0.500000    Uiso  ? Cl
   Cl41       1.0     0.500000     0.750000     0.000000    Uiso  ? Cl
   Cl42       1.0     0.500000     0.250000     0.000000    Uiso  ? Cl
   Cl43       1.0     0.000000     0.750000     0.500000    Uiso  ? Cl
   Cl44       1.0     0.750000     0.250000     0.750000    Uiso  ? Cl
   Cl45       1.0     0.250000     0.750000     0.250000    Uiso  ? Cl
   Cl46       1.0     0.750000     0.750000     0.250000    Uiso  ? Cl
   Cl47       1.0     0.250000     0.250000     0.750000    Uiso  ? Cl
