# generated using pymatgen
data_Li17Sc5Cl32
_symmetry_space_group_name_H-M   'P 1'
_cell_length_a   41.61480000
_cell_length_b   41.61480000
_cell_length_c   41.61480000
_cell_angle_alpha   90.00000000
_cell_angle_beta   90.00000000
_cell_angle_gamma   90.00000000
_symmetry_Int_Tables_number   1
_chemical_formula_structural   Li17Sc5Cl32
_chemical_formula_sum   'Li1088 Sc320 Cl2048'
_cell_volume   72068.16020343
_cell_formula_units_Z   64
loop_
 _symmetry_equiv_pos_site_id
 _symmetry_equiv_pos_as_xyz
  1  'x, y, z'
loop_
 _atom_site_type_symbol
 _atom_site_label
 _atom_site_symmetry_multiplicity
 _atom_site_fract_x
 _atom_site_fract_y
 _atom_site_fract_z
 _atom_site_occupancy
  Li  Li0  1  0.09375000  0.09375000  0.21875000  1.0
  Li  Li1  1  0.09375000  0.09375000  0.46875000  1.0
  Li  Li2  1  0.09375000  0.09375000  0.71875000  1.0
  Li  Li3  1  0.09375000  0.09375000  0.96875000  1.0
  Li  Li4  1  0.09375000  0.34375000  0.21875000  1.0
  Li  Li5  1  0.09375000  0.34375000  0.46875000  1.0
  Li  Li6  1  0.09375000  0.34375000  0.71875000  1.0
  Li  Li7  1  0.09375000  0.34375000  0.96875000  1.0
  Li  Li8  1  0.09375000  0.59375000  0.21875000  1.0
  Li  Li9  1  0.09375000  0.59375000  0.46875000  1.0
  Li  Li10  1  0.09375000  0.59375000  0.71875000  1.0
  Li  Li11  1  0.09375000  0.59375000  0.96875000  1.0
  Li  Li12  1  0.09375000  0.84375000  0.21875000  1.0
  Li  Li13  1  0.09375000  0.84375000  0.46875000  1.0
  Li  Li14  1  0.09375000  0.84375000  0.71875000  1.0
  Li  Li15  1  0.09375000  0.84375000  0.96875000  1.0
  Li  Li16  1  0.34375000  0.09375000  0.21875000  1.0
  Li  Li17  1  0.34375000  0.09375000  0.46875000  1.0
  Li  Li18  1  0.34375000  0.09375000  0.71875000  1.0
  Li  Li19  1  0.34375000  0.09375000  0.96875000  1.0
  Li  Li20  1  0.34375000  0.34375000  0.21875000  1.0
  Li  Li21  1  0.34375000  0.34375000  0.46875000  1.0
  Li  Li22  1  0.34375000  0.34375000  0.71875000  1.0
  Li  Li23  1  0.34375000  0.34375000  0.96875000  1.0
  Li  Li24  1  0.34375000  0.59375000  0.21875000  1.0
  Li  Li25  1  0.34375000  0.59375000  0.46875000  1.0
  Li  Li26  1  0.34375000  0.59375000  0.71875000  1.0
  Li  Li27  1  0.34375000  0.59375000  0.96875000  1.0
  Li  Li28  1  0.34375000  0.84375000  0.21875000  1.0
  Li  Li29  1  0.34375000  0.84375000  0.46875000  1.0
  Li  Li30  1  0.34375000  0.84375000  0.71875000  1.0
  Li  Li31  1  0.34375000  0.84375000  0.96875000  1.0
  Li  Li32  1  0.59375000  0.09375000  0.21875000  1.0
  Li  Li33  1  0.59375000  0.09375000  0.46875000  1.0
  Li  Li34  1  0.59375000  0.09375000  0.71875000  1.0
  Li  Li35  1  0.59375000  0.09375000  0.96875000  1.0
  Li  Li36  1  0.59375000  0.34375000  0.21875000  1.0
  Li  Li37  1  0.59375000  0.34375000  0.46875000  1.0
  Li  Li38  1  0.59375000  0.34375000  0.71875000  1.0
  Li  Li39  1  0.59375000  0.34375000  0.96875000  1.0
  Li  Li40  1  0.59375000  0.59375000  0.21875000  1.0
  Li  Li41  1  0.59375000  0.59375000  0.46875000  1.0
  Li  Li42  1  0.59375000  0.59375000  0.71875000  1.0
  Li  Li43  1  0.59375000  0.59375000  0.96875000  1.0
  Li  Li44  1  0.59375000  0.84375000  0.21875000  1.0
  Li  Li45  1  0.59375000  0.84375000  0.46875000  1.0
  Li  Li46  1  0.59375000  0.84375000  0.71875000  1.0
  Li  Li47  1  0.59375000  0.84375000  0.96875000  1.0
  Li  Li48  1  0.84375000  0.09375000  0.21875000  1.0
  Li  Li49  1  0.84375000  0.09375000  0.46875000  1.0
  Li  Li50  1  0.84375000  0.09375000  0.71875000  1.0
  Li  Li51  1  0.84375000  0.09375000  0.96875000  1.0
  Li  Li52  1  0.84375000  0.34375000  0.21875000  1.0
  Li  Li53  1  0.84375000  0.34375000  0.46875000  1.0
  Li  Li54  1  0.84375000  0.34375000  0.71875000  1.0
  Li  Li55  1  0.84375000  0.34375000  0.96875000  1.0
  Li  Li56  1  0.84375000  0.59375000  0.21875000  1.0
  Li  Li57  1  0.84375000  0.59375000  0.46875000  1.0
  Li  Li58  1  0.84375000  0.59375000  0.71875000  1.0
  Li  Li59  1  0.84375000  0.59375000  0.96875000  1.0
  Li  Li60  1  0.84375000  0.84375000  0.21875000  1.0
  Li  Li61  1  0.84375000  0.84375000  0.46875000  1.0
  Li  Li62  1  0.84375000  0.84375000  0.71875000  1.0
  Li  Li63  1  0.84375000  0.84375000  0.96875000  1.0
  Li  Li64  1  0.06250000  0.06250000  1.00000000  1.0
  Li  Li65  1  0.06250000  0.06250000  0.25000000  1.0
  Li  Li66  1  0.06250000  0.06250000  0.50000000  1.0
  Li  Li67  1  0.06250000  0.06250000  0.75000000  1.0
  Li  Li68  1  0.06250000  0.31250000  1.00000000  1.0
  Li  Li69  1  0.06250000  0.31250000  0.25000000  1.0
  Li  Li70  1  0.06250000  0.31250000  0.50000000  1.0
  Li  Li71  1  0.06250000  0.31250000  0.75000000  1.0
  Li  Li72  1  0.06250000  0.56250000  1.00000000  1.0
  Li  Li73  1  0.06250000  0.56250000  0.25000000  1.0
  Li  Li74  1  0.06250000  0.56250000  0.50000000  1.0
  Li  Li75  1  0.06250000  0.56250000  0.75000000  1.0
  Li  Li76  1  0.06250000  0.81250000  1.00000000  1.0
  Li  Li77  1  0.06250000  0.81250000  0.25000000  1.0
  Li  Li78  1  0.06250000  0.81250000  0.50000000  1.0
  Li  Li79  1  0.06250000  0.81250000  0.75000000  1.0
  Li  Li80  1  0.31250000  0.06250000  0.00000000  1.0
  Li  Li81  1  0.31250000  0.06250000  0.25000000  1.0
  Li  Li82  1  0.31250000  0.06250000  0.50000000  1.0
  Li  Li83  1  0.31250000  0.06250000  0.75000000  1.0
  Li  Li84  1  0.31250000  0.31250000  1.00000000  1.0
  Li  Li85  1  0.31250000  0.31250000  0.25000000  1.0
  Li  Li86  1  0.31250000  0.31250000  0.50000000  1.0
  Li  Li87  1  0.31250000  0.31250000  0.75000000  1.0
  Li  Li88  1  0.31250000  0.56250000  1.00000000  1.0
  Li  Li89  1  0.31250000  0.56250000  0.25000000  1.0
  Li  Li90  1  0.31250000  0.56250000  0.50000000  1.0
  Li  Li91  1  0.31250000  0.56250000  0.75000000  1.0
  Li  Li92  1  0.31250000  0.81250000  1.00000000  1.0
  Li  Li93  1  0.31250000  0.81250000  0.25000000  1.0
  Li  Li94  1  0.31250000  0.81250000  0.50000000  1.0
  Li  Li95  1  0.31250000  0.81250000  0.75000000  1.0
  Li  Li96  1  0.56250000  0.06250000  0.00000000  1.0
  Li  Li97  1  0.56250000  0.06250000  0.25000000  1.0
  Li  Li98  1  0.56250000  0.06250000  0.50000000  1.0
  Li  Li99  1  0.56250000  0.06250000  0.75000000  1.0
  Li  Li100  1  0.56250000  0.31250000  0.00000000  1.0
  Li  Li101  1  0.56250000  0.31250000  0.25000000  1.0
  Li  Li102  1  0.56250000  0.31250000  0.50000000  1.0
  Li  Li103  1  0.56250000  0.31250000  0.75000000  1.0
  Li  Li104  1  0.56250000  0.56250000  0.00000000  1.0
  Li  Li105  1  0.56250000  0.56250000  0.25000000  1.0
  Li  Li106  1  0.56250000  0.56250000  0.50000000  1.0
  Li  Li107  1  0.56250000  0.56250000  0.75000000  1.0
  Li  Li108  1  0.56250000  0.81250000  1.00000000  1.0
  Li  Li109  1  0.56250000  0.81250000  0.25000000  1.0
  Li  Li110  1  0.56250000  0.81250000  0.50000000  1.0
  Li  Li111  1  0.56250000  0.81250000  0.75000000  1.0
  Li  Li112  1  0.81250000  0.06250000  1.00000000  1.0
  Li  Li113  1  0.81250000  0.06250000  0.25000000  1.0
  Li  Li114  1  0.81250000  0.06250000  0.50000000  1.0
  Li  Li115  1  0.81250000  0.06250000  0.75000000  1.0
  Li  Li116  1  0.81250000  0.31250000  1.00000000  1.0
  Li  Li117  1  0.81250000  0.31250000  0.25000000  1.0
  Li  Li118  1  0.81250000  0.31250000  0.50000000  1.0
  Li  Li119  1  0.81250000  0.31250000  0.75000000  1.0
  Li  Li120  1  0.81250000  0.56250000  0.00000000  1.0
  Li  Li121  1  0.81250000  0.56250000  0.25000000  1.0
  Li  Li122  1  0.81250000  0.56250000  0.50000000  1.0
  Li  Li123  1  0.81250000  0.56250000  0.75000000  1.0
  Li  Li124  1  0.81250000  0.81250000  1.00000000  1.0
  Li  Li125  1  0.81250000  0.81250000  0.25000000  1.0
  Li  Li126  1  0.81250000  0.81250000  0.50000000  1.0
  Li  Li127  1  0.81250000  0.81250000  0.75000000  1.0
  Li  Li128  1  0.06250000  0.12500000  0.18750000  1.0
  Li  Li129  1  0.06250000  0.12500000  0.43750000  1.0
  Li  Li130  1  0.06250000  0.12500000  0.68750000  1.0
  Li  Li131  1  0.06250000  0.12500000  0.93750000  1.0
  Li  Li132  1  0.06250000  0.37500000  0.18750000  1.0
  Li  Li133  1  0.06250000  0.37500000  0.43750000  1.0
  Li  Li134  1  0.06250000  0.37500000  0.68750000  1.0
  Li  Li135  1  0.06250000  0.37500000  0.93750000  1.0
  Li  Li136  1  0.06250000  0.62500000  0.18750000  1.0
  Li  Li137  1  0.06250000  0.62500000  0.43750000  1.0
  Li  Li138  1  0.06250000  0.62500000  0.68750000  1.0
  Li  Li139  1  0.06250000  0.62500000  0.93750000  1.0
  Li  Li140  1  0.06250000  0.87500000  0.18750000  1.0
  Li  Li141  1  0.06250000  0.87500000  0.43750000  1.0
  Li  Li142  1  0.06250000  0.87500000  0.68750000  1.0
  Li  Li143  1  0.06250000  0.87500000  0.93750000  1.0
  Li  Li144  1  0.31250000  0.12500000  0.18750000  1.0
  Li  Li145  1  0.31250000  0.12500000  0.43750000  1.0
  Li  Li146  1  0.31250000  0.12500000  0.68750000  1.0
  Li  Li147  1  0.31250000  0.12500000  0.93750000  1.0
  Li  Li148  1  0.31250000  0.37500000  0.18750000  1.0
  Li  Li149  1  0.31250000  0.37500000  0.43750000  1.0
  Li  Li150  1  0.31250000  0.37500000  0.68750000  1.0
  Li  Li151  1  0.31250000  0.37500000  0.93750000  1.0
  Li  Li152  1  0.31250000  0.62500000  0.18750000  1.0
  Li  Li153  1  0.31250000  0.62500000  0.43750000  1.0
  Li  Li154  1  0.31250000  0.62500000  0.68750000  1.0
  Li  Li155  1  0.31250000  0.62500000  0.93750000  1.0
  Li  Li156  1  0.31250000  0.87500000  0.18750000  1.0
  Li  Li157  1  0.31250000  0.87500000  0.43750000  1.0
  Li  Li158  1  0.31250000  0.87500000  0.68750000  1.0
  Li  Li159  1  0.31250000  0.87500000  0.93750000  1.0
  Li  Li160  1  0.56250000  0.12500000  0.18750000  1.0
  Li  Li161  1  0.56250000  0.12500000  0.43750000  1.0
  Li  Li162  1  0.56250000  0.12500000  0.68750000  1.0
  Li  Li163  1  0.56250000  0.12500000  0.93750000  1.0
  Li  Li164  1  0.56250000  0.37500000  0.18750000  1.0
  Li  Li165  1  0.56250000  0.37500000  0.43750000  1.0
  Li  Li166  1  0.56250000  0.37500000  0.68750000  1.0
  Li  Li167  1  0.56250000  0.37500000  0.93750000  1.0
  Li  Li168  1  0.56250000  0.62500000  0.18750000  1.0
  Li  Li169  1  0.56250000  0.62500000  0.43750000  1.0
  Li  Li170  1  0.56250000  0.62500000  0.68750000  1.0
  Li  Li171  1  0.56250000  0.62500000  0.93750000  1.0
  Li  Li172  1  0.56250000  0.87500000  0.18750000  1.0
  Li  Li173  1  0.56250000  0.87500000  0.43750000  1.0
  Li  Li174  1  0.56250000  0.87500000  0.68750000  1.0
  Li  Li175  1  0.56250000  0.87500000  0.93750000  1.0
  Li  Li176  1  0.81250000  0.12500000  0.18750000  1.0
  Li  Li177  1  0.81250000  0.12500000  0.43750000  1.0
  Li  Li178  1  0.81250000  0.12500000  0.68750000  1.0
  Li  Li179  1  0.81250000  0.12500000  0.93750000  1.0
  Li  Li180  1  0.81250000  0.37500000  0.18750000  1.0
  Li  Li181  1  0.81250000  0.37500000  0.43750000  1.0
  Li  Li182  1  0.81250000  0.37500000  0.68750000  1.0
  Li  Li183  1  0.81250000  0.37500000  0.93750000  1.0
  Li  Li184  1  0.81250000  0.62500000  0.18750000  1.0
  Li  Li185  1  0.81250000  0.62500000  0.43750000  1.0
  Li  Li186  1  0.81250000  0.62500000  0.68750000  1.0
  Li  Li187  1  0.81250000  0.62500000  0.93750000  1.0
  Li  Li188  1  0.81250000  0.87500000  0.18750000  1.0
  Li  Li189  1  0.81250000  0.87500000  0.43750000  1.0
  Li  Li190  1  0.81250000  0.87500000  0.68750000  1.0
  Li  Li191  1  0.81250000  0.87500000  0.93750000  1.0
  Li  Li192  1  0.12500000  0.00000000  0.12500000  1.0
  Li  Li193  1  0.12500000  0.00000000  0.37500000  1.0
  Li  Li194  1  0.12500000  0.00000000  0.62500000  1.0
  Li  Li195  1  0.12500000  0.00000000  0.87500000  1.0
  Li  Li196  1  0.12500000  0.25000000  0.12500000  1.0
  Li  Li197  1  0.12500000  0.25000000  0.37500000  1.0
  Li  Li198  1  0.12500000  0.25000000  0.62500000  1.0
  Li  Li199  1  0.12500000  0.25000000  0.87500000  1.0
  Li  Li200  1  0.12500000  0.50000000  0.12500000  1.0
  Li  Li201  1  0.12500000  0.50000000  0.37500000  1.0
  Li  Li202  1  0.12500000  0.50000000  0.62500000  1.0
  Li  Li203  1  0.12500000  0.50000000  0.87500000  1.0
  Li  Li204  1  0.12500000  0.75000000  0.12500000  1.0
  Li  Li205  1  0.12500000  0.75000000  0.37500000  1.0
  Li  Li206  1  0.12500000  0.75000000  0.62500000  1.0
  Li  Li207  1  0.12500000  0.75000000  0.87500000  1.0
  Li  Li208  1  0.37500000  0.00000000  0.12500000  1.0
  Li  Li209  1  0.37500000  0.00000000  0.37500000  1.0
  Li  Li210  1  0.37500000  0.00000000  0.62500000  1.0
  Li  Li211  1  0.37500000  0.00000000  0.87500000  1.0
  Li  Li212  1  0.37500000  0.25000000  0.12500000  1.0
  Li  Li213  1  0.37500000  0.25000000  0.37500000  1.0
  Li  Li214  1  0.37500000  0.25000000  0.62500000  1.0
  Li  Li215  1  0.37500000  0.25000000  0.87500000  1.0
  Li  Li216  1  0.37500000  0.50000000  0.12500000  1.0
  Li  Li217  1  0.37500000  0.50000000  0.37500000  1.0
  Li  Li218  1  0.37500000  0.50000000  0.62500000  1.0
  Li  Li219  1  0.37500000  0.50000000  0.87500000  1.0
  Li  Li220  1  0.37500000  0.75000000  0.12500000  1.0
  Li  Li221  1  0.37500000  0.75000000  0.37500000  1.0
  Li  Li222  1  0.37500000  0.75000000  0.62500000  1.0
  Li  Li223  1  0.37500000  0.75000000  0.87500000  1.0
  Li  Li224  1  0.62500000  0.00000000  0.12500000  1.0
  Li  Li225  1  0.62500000  0.00000000  0.37500000  1.0
  Li  Li226  1  0.62500000  0.00000000  0.62500000  1.0
  Li  Li227  1  0.62500000  0.00000000  0.87500000  1.0
  Li  Li228  1  0.62500000  0.25000000  0.12500000  1.0
  Li  Li229  1  0.62500000  0.25000000  0.37500000  1.0
  Li  Li230  1  0.62500000  0.25000000  0.62500000  1.0
  Li  Li231  1  0.62500000  0.25000000  0.87500000  1.0
  Li  Li232  1  0.62500000  0.50000000  0.12500000  1.0
  Li  Li233  1  0.62500000  0.50000000  0.37500000  1.0
  Li  Li234  1  0.62500000  0.50000000  0.62500000  1.0
  Li  Li235  1  0.62500000  0.50000000  0.87500000  1.0
  Li  Li236  1  0.62500000  0.75000000  0.12500000  1.0
  Li  Li237  1  0.62500000  0.75000000  0.37500000  1.0
  Li  Li238  1  0.62500000  0.75000000  0.62500000  1.0
  Li  Li239  1  0.62500000  0.75000000  0.87500000  1.0
  Li  Li240  1  0.87500000  0.00000000  0.12500000  1.0
  Li  Li241  1  0.87500000  0.00000000  0.37500000  1.0
  Li  Li242  1  0.87500000  0.00000000  0.62500000  1.0
  Li  Li243  1  0.87500000  0.00000000  0.87500000  1.0
  Li  Li244  1  0.87500000  0.25000000  0.12500000  1.0
  Li  Li245  1  0.87500000  0.25000000  0.37500000  1.0
  Li  Li246  1  0.87500000  0.25000000  0.62500000  1.0
  Li  Li247  1  0.87500000  0.25000000  0.87500000  1.0
  Li  Li248  1  0.87500000  0.50000000  0.12500000  1.0
  Li  Li249  1  0.87500000  0.50000000  0.37500000  1.0
  Li  Li250  1  0.87500000  0.50000000  0.62500000  1.0
  Li  Li251  1  0.87500000  0.50000000  0.87500000  1.0
  Li  Li252  1  0.87500000  0.75000000  0.12500000  1.0
  Li  Li253  1  0.87500000  0.75000000  0.37500000  1.0
  Li  Li254  1  0.87500000  0.75000000  0.62500000  1.0
  Li  Li255  1  0.87500000  0.75000000  0.87500000  1.0
  Li  Li256  1  0.12500000  0.12500000  1.00000000  1.0
  Li  Li257  1  0.12500000  0.12500000  0.25000000  1.0
  Li  Li258  1  0.12500000  0.12500000  0.50000000  1.0
  Li  Li259  1  0.12500000  0.12500000  0.75000000  1.0
  Li  Li260  1  0.12500000  0.37500000  1.00000000  1.0
  Li  Li261  1  0.12500000  0.37500000  0.25000000  1.0
  Li  Li262  1  0.12500000  0.37500000  0.50000000  1.0
  Li  Li263  1  0.12500000  0.37500000  0.75000000  1.0
  Li  Li264  1  0.12500000  0.62500000  1.00000000  1.0
  Li  Li265  1  0.12500000  0.62500000  0.25000000  1.0
  Li  Li266  1  0.12500000  0.62500000  0.50000000  1.0
  Li  Li267  1  0.12500000  0.62500000  0.75000000  1.0
  Li  Li268  1  0.12500000  0.87500000  1.00000000  1.0
  Li  Li269  1  0.12500000  0.87500000  0.25000000  1.0
  Li  Li270  1  0.12500000  0.87500000  0.50000000  1.0
  Li  Li271  1  0.12500000  0.87500000  0.75000000  1.0
  Li  Li272  1  0.37500000  0.12500000  0.00000000  1.0
  Li  Li273  1  0.37500000  0.12500000  0.25000000  1.0
  Li  Li274  1  0.37500000  0.12500000  0.50000000  1.0
  Li  Li275  1  0.37500000  0.12500000  0.75000000  1.0
  Li  Li276  1  0.37500000  0.37500000  1.00000000  1.0
  Li  Li277  1  0.37500000  0.37500000  0.25000000  1.0
  Li  Li278  1  0.37500000  0.37500000  0.50000000  1.0
  Li  Li279  1  0.37500000  0.37500000  0.75000000  1.0
  Li  Li280  1  0.37500000  0.62500000  1.00000000  1.0
  Li  Li281  1  0.37500000  0.62500000  0.25000000  1.0
  Li  Li282  1  0.37500000  0.62500000  0.50000000  1.0
  Li  Li283  1  0.37500000  0.62500000  0.75000000  1.0
  Li  Li284  1  0.37500000  0.87500000  1.00000000  1.0
  Li  Li285  1  0.37500000  0.87500000  0.25000000  1.0
  Li  Li286  1  0.37500000  0.87500000  0.50000000  1.0
  Li  Li287  1  0.37500000  0.87500000  0.75000000  1.0
  Li  Li288  1  0.62500000  0.12500000  0.00000000  1.0
  Li  Li289  1  0.62500000  0.12500000  0.25000000  1.0
  Li  Li290  1  0.62500000  0.12500000  0.50000000  1.0
  Li  Li291  1  0.62500000  0.12500000  0.75000000  1.0
  Li  Li292  1  0.62500000  0.37500000  0.00000000  1.0
  Li  Li293  1  0.62500000  0.37500000  0.25000000  1.0
  Li  Li294  1  0.62500000  0.37500000  0.50000000  1.0
  Li  Li295  1  0.62500000  0.37500000  0.75000000  1.0
  Li  Li296  1  0.62500000  0.62500000  1.00000000  1.0
  Li  Li297  1  0.62500000  0.62500000  0.25000000  1.0
  Li  Li298  1  0.62500000  0.62500000  0.50000000  1.0
  Li  Li299  1  0.62500000  0.62500000  0.75000000  1.0
  Li  Li300  1  0.62500000  0.87500000  1.00000000  1.0
  Li  Li301  1  0.62500000  0.87500000  0.25000000  1.0
  Li  Li302  1  0.62500000  0.87500000  0.50000000  1.0
  Li  Li303  1  0.62500000  0.87500000  0.75000000  1.0
  Li  Li304  1  0.87500000  0.12500000  0.00000000  1.0
  Li  Li305  1  0.87500000  0.12500000  0.25000000  1.0
  Li  Li306  1  0.87500000  0.12500000  0.50000000  1.0
  Li  Li307  1  0.87500000  0.12500000  0.75000000  1.0
  Li  Li308  1  0.87500000  0.37500000  0.00000000  1.0
  Li  Li309  1  0.87500000  0.37500000  0.25000000  1.0
  Li  Li310  1  0.87500000  0.37500000  0.50000000  1.0
  Li  Li311  1  0.87500000  0.37500000  0.75000000  1.0
  Li  Li312  1  0.87500000  0.62500000  1.00000000  1.0
  Li  Li313  1  0.87500000  0.62500000  0.25000000  1.0
  Li  Li314  1  0.87500000  0.62500000  0.50000000  1.0
  Li  Li315  1  0.87500000  0.62500000  0.75000000  1.0
  Li  Li316  1  0.87500000  0.87500000  1.00000000  1.0
  Li  Li317  1  0.87500000  0.87500000  0.25000000  1.0
  Li  Li318  1  0.87500000  0.87500000  0.50000000  1.0
  Li  Li319  1  0.87500000  0.87500000  0.75000000  1.0
  Li  Li320  1  0.03400000  0.21875000  0.09375000  1.0
  Li  Li321  1  0.03400000  0.21875000  0.34375000  1.0
  Li  Li322  1  0.03400000  0.21875000  0.59375000  1.0
  Li  Li323  1  0.03400000  0.21875000  0.84375000  1.0
  Li  Li324  1  0.03400000  0.46875000  0.09375000  1.0
  Li  Li325  1  0.03400000  0.46875000  0.34375000  1.0
  Li  Li326  1  0.03400000  0.46875000  0.59375000  1.0
  Li  Li327  1  0.03400000  0.46875000  0.84375000  1.0
  Li  Li328  1  0.03400000  0.71875000  0.09375000  1.0
  Li  Li329  1  0.03400000  0.71875000  0.34375000  1.0
  Li  Li330  1  0.03400000  0.71875000  0.59375000  1.0
  Li  Li331  1  0.03400000  0.71875000  0.84375000  1.0
  Li  Li332  1  0.03400000  0.96875000  0.09375000  1.0
  Li  Li333  1  0.03400000  0.96875000  0.34375000  1.0
  Li  Li334  1  0.03400000  0.96875000  0.59375000  1.0
  Li  Li335  1  0.03400000  0.96875000  0.84375000  1.0
  Li  Li336  1  0.28400000  0.21875000  0.09375000  1.0
  Li  Li337  1  0.28400000  0.21875000  0.34375000  1.0
  Li  Li338  1  0.28400000  0.21875000  0.59375000  1.0
  Li  Li339  1  0.28400000  0.21875000  0.84375000  1.0
  Li  Li340  1  0.28400000  0.46875000  0.09375000  1.0
  Li  Li341  1  0.28400000  0.46875000  0.34375000  1.0
  Li  Li342  1  0.28400000  0.46875000  0.59375000  1.0
  Li  Li343  1  0.28400000  0.46875000  0.84375000  1.0
  Li  Li344  1  0.28400000  0.71875000  0.09375000  1.0
  Li  Li345  1  0.28400000  0.71875000  0.34375000  1.0
  Li  Li346  1  0.28400000  0.71875000  0.59375000  1.0
  Li  Li347  1  0.28400000  0.71875000  0.84375000  1.0
  Li  Li348  1  0.28400000  0.96875000  0.09375000  1.0
  Li  Li349  1  0.28400000  0.96875000  0.34375000  1.0
  Li  Li350  1  0.28400000  0.96875000  0.59375000  1.0
  Li  Li351  1  0.28400000  0.96875000  0.84375000  1.0
  Li  Li352  1  0.53400000  0.21875000  0.09375000  1.0
  Li  Li353  1  0.53400000  0.21875000  0.34375000  1.0
  Li  Li354  1  0.53400000  0.21875000  0.59375000  1.0
  Li  Li355  1  0.53400000  0.21875000  0.84375000  1.0
  Li  Li356  1  0.53400000  0.46875000  0.09375000  1.0
  Li  Li357  1  0.53400000  0.46875000  0.34375000  1.0
  Li  Li358  1  0.53400000  0.46875000  0.59375000  1.0
  Li  Li359  1  0.53400000  0.46875000  0.84375000  1.0
  Li  Li360  1  0.53400000  0.71875000  0.09375000  1.0
  Li  Li361  1  0.53400000  0.71875000  0.34375000  1.0
  Li  Li362  1  0.53400000  0.71875000  0.59375000  1.0
  Li  Li363  1  0.53400000  0.71875000  0.84375000  1.0
  Li  Li364  1  0.53400000  0.96875000  0.09375000  1.0
  Li  Li365  1  0.53400000  0.96875000  0.34375000  1.0
  Li  Li366  1  0.53400000  0.96875000  0.59375000  1.0
  Li  Li367  1  0.53400000  0.96875000  0.84375000  1.0
  Li  Li368  1  0.78400000  0.21875000  0.09375000  1.0
  Li  Li369  1  0.78400000  0.21875000  0.34375000  1.0
  Li  Li370  1  0.78400000  0.21875000  0.59375000  1.0
  Li  Li371  1  0.78400000  0.21875000  0.84375000  1.0
  Li  Li372  1  0.78400000  0.46875000  0.09375000  1.0
  Li  Li373  1  0.78400000  0.46875000  0.34375000  1.0
  Li  Li374  1  0.78400000  0.46875000  0.59375000  1.0
  Li  Li375  1  0.78400000  0.46875000  0.84375000  1.0
  Li  Li376  1  0.78400000  0.71875000  0.09375000  1.0
  Li  Li377  1  0.78400000  0.71875000  0.34375000  1.0
  Li  Li378  1  0.78400000  0.71875000  0.59375000  1.0
  Li  Li379  1  0.78400000  0.71875000  0.84375000  1.0
  Li  Li380  1  0.78400000  0.96875000  0.09375000  1.0
  Li  Li381  1  0.78400000  0.96875000  0.34375000  1.0
  Li  Li382  1  0.78400000  0.96875000  0.59375000  1.0
  Li  Li383  1  0.78400000  0.96875000  0.84375000  1.0
  Li  Li384  1  0.06250000  0.18750000  1.00000000  1.0
  Li  Li385  1  0.06250000  0.18750000  0.25000000  1.0
  Li  Li386  1  0.06250000  0.18750000  0.50000000  1.0
  Li  Li387  1  0.06250000  0.18750000  0.75000000  1.0
  Li  Li388  1  0.06250000  0.43750000  1.00000000  1.0
  Li  Li389  1  0.06250000  0.43750000  0.25000000  1.0
  Li  Li390  1  0.06250000  0.43750000  0.50000000  1.0
  Li  Li391  1  0.06250000  0.43750000  0.75000000  1.0
  Li  Li392  1  0.06250000  0.68750000  1.00000000  1.0
  Li  Li393  1  0.06250000  0.68750000  0.25000000  1.0
  Li  Li394  1  0.06250000  0.68750000  0.50000000  1.0
  Li  Li395  1  0.06250000  0.68750000  0.75000000  1.0
  Li  Li396  1  0.06250000  0.93750000  0.00000000  1.0
  Li  Li397  1  0.06250000  0.93750000  0.25000000  1.0
  Li  Li398  1  0.06250000  0.93750000  0.50000000  1.0
  Li  Li399  1  0.06250000  0.93750000  0.75000000  1.0
  Li  Li400  1  0.31250000  0.18750000  1.00000000  1.0
  Li  Li401  1  0.31250000  0.18750000  0.25000000  1.0
  Li  Li402  1  0.31250000  0.18750000  0.50000000  1.0
  Li  Li403  1  0.31250000  0.18750000  0.75000000  1.0
  Li  Li404  1  0.31250000  0.43750000  1.00000000  1.0
  Li  Li405  1  0.31250000  0.43750000  0.25000000  1.0
  Li  Li406  1  0.31250000  0.43750000  0.50000000  1.0
  Li  Li407  1  0.31250000  0.43750000  0.75000000  1.0
  Li  Li408  1  0.31250000  0.68750000  1.00000000  1.0
  Li  Li409  1  0.31250000  0.68750000  0.25000000  1.0
  Li  Li410  1  0.31250000  0.68750000  0.50000000  1.0
  Li  Li411  1  0.31250000  0.68750000  0.75000000  1.0
  Li  Li412  1  0.31250000  0.93750000  0.00000000  1.0
  Li  Li413  1  0.31250000  0.93750000  0.25000000  1.0
  Li  Li414  1  0.31250000  0.93750000  0.50000000  1.0
  Li  Li415  1  0.31250000  0.93750000  0.75000000  1.0
  Li  Li416  1  0.56250000  0.18750000  0.00000000  1.0
  Li  Li417  1  0.56250000  0.18750000  0.25000000  1.0
  Li  Li418  1  0.56250000  0.18750000  0.50000000  1.0
  Li  Li419  1  0.56250000  0.18750000  0.75000000  1.0
  Li  Li420  1  0.56250000  0.43750000  0.00000000  1.0
  Li  Li421  1  0.56250000  0.43750000  0.25000000  1.0
  Li  Li422  1  0.56250000  0.43750000  0.50000000  1.0
  Li  Li423  1  0.56250000  0.43750000  0.75000000  1.0
  Li  Li424  1  0.56250000  0.68750000  1.00000000  1.0
  Li  Li425  1  0.56250000  0.68750000  0.25000000  1.0
  Li  Li426  1  0.56250000  0.68750000  0.50000000  1.0
  Li  Li427  1  0.56250000  0.68750000  0.75000000  1.0
  Li  Li428  1  0.56250000  0.93750000  0.00000000  1.0
  Li  Li429  1  0.56250000  0.93750000  0.25000000  1.0
  Li  Li430  1  0.56250000  0.93750000  0.50000000  1.0
  Li  Li431  1  0.56250000  0.93750000  0.75000000  1.0
  Li  Li432  1  0.81250000  0.18750000  1.00000000  1.0
  Li  Li433  1  0.81250000  0.18750000  0.25000000  1.0
  Li  Li434  1  0.81250000  0.18750000  0.50000000  1.0
  Li  Li435  1  0.81250000  0.18750000  0.75000000  1.0
  Li  Li436  1  0.81250000  0.43750000  1.00000000  1.0
  Li  Li437  1  0.81250000  0.43750000  0.25000000  1.0
  Li  Li438  1  0.81250000  0.43750000  0.50000000  1.0
  Li  Li439  1  0.81250000  0.43750000  0.75000000  1.0
  Li  Li440  1  0.81250000  0.68750000  1.00000000  1.0
  Li  Li441  1  0.81250000  0.68750000  0.25000000  1.0
  Li  Li442  1  0.81250000  0.68750000  0.50000000  1.0
  Li  Li443  1  0.81250000  0.68750000  0.75000000  1.0
  Li  Li444  1  0.81250000  0.93750000  0.00000000  1.0
  Li  Li445  1  0.81250000  0.93750000  0.25000000  1.0
  Li  Li446  1  0.81250000  0.93750000  0.50000000  1.0
  Li  Li447  1  0.81250000  0.93750000  0.75000000  1.0
  Li  Li448  1  0.06250000  0.12500000  0.06250000  1.0
  Li  Li449  1  0.06250000  0.12500000  0.31250000  1.0
  Li  Li450  1  0.06250000  0.12500000  0.56250000  1.0
  Li  Li451  1  0.06250000  0.12500000  0.81250000  1.0
  Li  Li452  1  0.06250000  0.37500000  0.06250000  1.0
  Li  Li453  1  0.06250000  0.37500000  0.31250000  1.0
  Li  Li454  1  0.06250000  0.37500000  0.56250000  1.0
  Li  Li455  1  0.06250000  0.37500000  0.81250000  1.0
  Li  Li456  1  0.06250000  0.62500000  0.06250000  1.0
  Li  Li457  1  0.06250000  0.62500000  0.31250000  1.0
  Li  Li458  1  0.06250000  0.62500000  0.56250000  1.0
  Li  Li459  1  0.06250000  0.62500000  0.81250000  1.0
  Li  Li460  1  0.06250000  0.87500000  0.06250000  1.0
  Li  Li461  1  0.06250000  0.87500000  0.31250000  1.0
  Li  Li462  1  0.06250000  0.87500000  0.56250000  1.0
  Li  Li463  1  0.06250000  0.87500000  0.81250000  1.0
  Li  Li464  1  0.31250000  0.12500000  0.06250000  1.0
  Li  Li465  1  0.31250000  0.12500000  0.31250000  1.0
  Li  Li466  1  0.31250000  0.12500000  0.56250000  1.0
  Li  Li467  1  0.31250000  0.12500000  0.81250000  1.0
  Li  Li468  1  0.31250000  0.37500000  0.06250000  1.0
  Li  Li469  1  0.31250000  0.37500000  0.31250000  1.0
  Li  Li470  1  0.31250000  0.37500000  0.56250000  1.0
  Li  Li471  1  0.31250000  0.37500000  0.81250000  1.0
  Li  Li472  1  0.31250000  0.62500000  0.06250000  1.0
  Li  Li473  1  0.31250000  0.62500000  0.31250000  1.0
  Li  Li474  1  0.31250000  0.62500000  0.56250000  1.0
  Li  Li475  1  0.31250000  0.62500000  0.81250000  1.0
  Li  Li476  1  0.31250000  0.87500000  0.06250000  1.0
  Li  Li477  1  0.31250000  0.87500000  0.31250000  1.0
  Li  Li478  1  0.31250000  0.87500000  0.56250000  1.0
  Li  Li479  1  0.31250000  0.87500000  0.81250000  1.0
  Li  Li480  1  0.56250000  0.12500000  0.06250000  1.0
  Li  Li481  1  0.56250000  0.12500000  0.31250000  1.0
  Li  Li482  1  0.56250000  0.12500000  0.56250000  1.0
  Li  Li483  1  0.56250000  0.12500000  0.81250000  1.0
  Li  Li484  1  0.56250000  0.37500000  0.06250000  1.0
  Li  Li485  1  0.56250000  0.37500000  0.31250000  1.0
  Li  Li486  1  0.56250000  0.37500000  0.56250000  1.0
  Li  Li487  1  0.56250000  0.37500000  0.81250000  1.0
  Li  Li488  1  0.56250000  0.62500000  0.06250000  1.0
  Li  Li489  1  0.56250000  0.62500000  0.31250000  1.0
  Li  Li490  1  0.56250000  0.62500000  0.56250000  1.0
  Li  Li491  1  0.56250000  0.62500000  0.81250000  1.0
  Li  Li492  1  0.56250000  0.87500000  0.06250000  1.0
  Li  Li493  1  0.56250000  0.87500000  0.31250000  1.0
  Li  Li494  1  0.56250000  0.87500000  0.56250000  1.0
  Li  Li495  1  0.56250000  0.87500000  0.81250000  1.0
  Li  Li496  1  0.81250000  0.12500000  0.06250000  1.0
  Li  Li497  1  0.81250000  0.12500000  0.31250000  1.0
  Li  Li498  1  0.81250000  0.12500000  0.56250000  1.0
  Li  Li499  1  0.81250000  0.12500000  0.81250000  1.0
  Li  Li500  1  0.81250000  0.37500000  0.06250000  1.0
  Li  Li501  1  0.81250000  0.37500000  0.31250000  1.0
  Li  Li502  1  0.81250000  0.37500000  0.56250000  1.0
  Li  Li503  1  0.81250000  0.37500000  0.81250000  1.0
  Li  Li504  1  0.81250000  0.62500000  0.06250000  1.0
  Li  Li505  1  0.81250000  0.62500000  0.31250000  1.0
  Li  Li506  1  0.81250000  0.62500000  0.56250000  1.0
  Li  Li507  1  0.81250000  0.62500000  0.81250000  1.0
  Li  Li508  1  0.81250000  0.87500000  0.06250000  1.0
  Li  Li509  1  0.81250000  0.87500000  0.31250000  1.0
  Li  Li510  1  0.81250000  0.87500000  0.56250000  1.0
  Li  Li511  1  0.81250000  0.87500000  0.81250000  1.0
  Li  Li512  1  0.18750000  0.12500000  0.18750000  1.0
  Li  Li513  1  0.18750000  0.12500000  0.43750000  1.0
  Li  Li514  1  0.18750000  0.12500000  0.68750000  1.0
  Li  Li515  1  0.18750000  0.12500000  0.93750000  1.0
  Li  Li516  1  0.18750000  0.37500000  0.18750000  1.0
  Li  Li517  1  0.18750000  0.37500000  0.43750000  1.0
  Li  Li518  1  0.18750000  0.37500000  0.68750000  1.0
  Li  Li519  1  0.18750000  0.37500000  0.93750000  1.0
  Li  Li520  1  0.18750000  0.62500000  0.18750000  1.0
  Li  Li521  1  0.18750000  0.62500000  0.43750000  1.0
  Li  Li522  1  0.18750000  0.62500000  0.68750000  1.0
  Li  Li523  1  0.18750000  0.62500000  0.93750000  1.0
  Li  Li524  1  0.18750000  0.87500000  0.18750000  1.0
  Li  Li525  1  0.18750000  0.87500000  0.43750000  1.0
  Li  Li526  1  0.18750000  0.87500000  0.68750000  1.0
  Li  Li527  1  0.18750000  0.87500000  0.93750000  1.0
  Li  Li528  1  0.43750000  0.12500000  0.18750000  1.0
  Li  Li529  1  0.43750000  0.12500000  0.43750000  1.0
  Li  Li530  1  0.43750000  0.12500000  0.68750000  1.0
  Li  Li531  1  0.43750000  0.12500000  0.93750000  1.0
  Li  Li532  1  0.43750000  0.37500000  0.18750000  1.0
  Li  Li533  1  0.43750000  0.37500000  0.43750000  1.0
  Li  Li534  1  0.43750000  0.37500000  0.68750000  1.0
  Li  Li535  1  0.43750000  0.37500000  0.93750000  1.0
  Li  Li536  1  0.43750000  0.62500000  0.18750000  1.0
  Li  Li537  1  0.43750000  0.62500000  0.43750000  1.0
  Li  Li538  1  0.43750000  0.62500000  0.68750000  1.0
  Li  Li539  1  0.43750000  0.62500000  0.93750000  1.0
  Li  Li540  1  0.43750000  0.87500000  0.18750000  1.0
  Li  Li541  1  0.43750000  0.87500000  0.43750000  1.0
  Li  Li542  1  0.43750000  0.87500000  0.68750000  1.0
  Li  Li543  1  0.43750000  0.87500000  0.93750000  1.0
  Li  Li544  1  0.68750000  0.12500000  0.18750000  1.0
  Li  Li545  1  0.68750000  0.12500000  0.43750000  1.0
  Li  Li546  1  0.68750000  0.12500000  0.68750000  1.0
  Li  Li547  1  0.68750000  0.12500000  0.93750000  1.0
  Li  Li548  1  0.68750000  0.37500000  0.18750000  1.0
  Li  Li549  1  0.68750000  0.37500000  0.43750000  1.0
  Li  Li550  1  0.68750000  0.37500000  0.68750000  1.0
  Li  Li551  1  0.68750000  0.37500000  0.93750000  1.0
  Li  Li552  1  0.68750000  0.62500000  0.18750000  1.0
  Li  Li553  1  0.68750000  0.62500000  0.43750000  1.0
  Li  Li554  1  0.68750000  0.62500000  0.68750000  1.0
  Li  Li555  1  0.68750000  0.62500000  0.93750000  1.0
  Li  Li556  1  0.68750000  0.87500000  0.18750000  1.0
  Li  Li557  1  0.68750000  0.87500000  0.43750000  1.0
  Li  Li558  1  0.68750000  0.87500000  0.68750000  1.0
  Li  Li559  1  0.68750000  0.87500000  0.93750000  1.0
  Li  Li560  1  0.93750000  0.12500000  0.18750000  1.0
  Li  Li561  1  0.93750000  0.12500000  0.43750000  1.0
  Li  Li562  1  0.93750000  0.12500000  0.68750000  1.0
  Li  Li563  1  0.93750000  0.12500000  0.93750000  1.0
  Li  Li564  1  0.93750000  0.37500000  0.18750000  1.0
  Li  Li565  1  0.93750000  0.37500000  0.43750000  1.0
  Li  Li566  1  0.93750000  0.37500000  0.68750000  1.0
  Li  Li567  1  0.93750000  0.37500000  0.93750000  1.0
  Li  Li568  1  0.93750000  0.62500000  0.18750000  1.0
  Li  Li569  1  0.93750000  0.62500000  0.43750000  1.0
  Li  Li570  1  0.93750000  0.62500000  0.68750000  1.0
  Li  Li571  1  0.93750000  0.62500000  0.93750000  1.0
  Li  Li572  1  0.93750000  0.87500000  0.18750000  1.0
  Li  Li573  1  0.93750000  0.87500000  0.43750000  1.0
  Li  Li574  1  0.93750000  0.87500000  0.68750000  1.0
  Li  Li575  1  0.93750000  0.87500000  0.93750000  1.0
  Li  Li576  1  1.00000000  0.06250000  0.18750000  1.0
  Li  Li577  1  1.00000000  0.06250000  0.43750000  1.0
  Li  Li578  1  1.00000000  0.06250000  0.68750000  1.0
  Li  Li579  1  1.00000000  0.06250000  0.93750000  1.0
  Li  Li580  1  1.00000000  0.31250000  0.18750000  1.0
  Li  Li581  1  1.00000000  0.31250000  0.43750000  1.0
  Li  Li582  1  1.00000000  0.31250000  0.68750000  1.0
  Li  Li583  1  1.00000000  0.31250000  0.93750000  1.0
  Li  Li584  1  1.00000000  0.56250000  0.18750000  1.0
  Li  Li585  1  1.00000000  0.56250000  0.43750000  1.0
  Li  Li586  1  1.00000000  0.56250000  0.68750000  1.0
  Li  Li587  1  1.00000000  0.56250000  0.93750000  1.0
  Li  Li588  1  1.00000000  0.81250000  0.18750000  1.0
  Li  Li589  1  1.00000000  0.81250000  0.43750000  1.0
  Li  Li590  1  1.00000000  0.81250000  0.68750000  1.0
  Li  Li591  1  1.00000000  0.81250000  0.93750000  1.0
  Li  Li592  1  0.25000000  0.06250000  0.18750000  1.0
  Li  Li593  1  0.25000000  0.06250000  0.43750000  1.0
  Li  Li594  1  0.25000000  0.06250000  0.68750000  1.0
  Li  Li595  1  0.25000000  0.06250000  0.93750000  1.0
  Li  Li596  1  0.25000000  0.31250000  0.18750000  1.0
  Li  Li597  1  0.25000000  0.31250000  0.43750000  1.0
  Li  Li598  1  0.25000000  0.31250000  0.68750000  1.0
  Li  Li599  1  0.25000000  0.31250000  0.93750000  1.0
  Li  Li600  1  0.25000000  0.56250000  0.18750000  1.0
  Li  Li601  1  0.25000000  0.56250000  0.43750000  1.0
  Li  Li602  1  0.25000000  0.56250000  0.68750000  1.0
  Li  Li603  1  0.25000000  0.56250000  0.93750000  1.0
  Li  Li604  1  0.25000000  0.81250000  0.18750000  1.0
  Li  Li605  1  0.25000000  0.81250000  0.43750000  1.0
  Li  Li606  1  0.25000000  0.81250000  0.68750000  1.0
  Li  Li607  1  0.25000000  0.81250000  0.93750000  1.0
  Li  Li608  1  0.50000000  0.06250000  0.18750000  1.0
  Li  Li609  1  0.50000000  0.06250000  0.43750000  1.0
  Li  Li610  1  0.50000000  0.06250000  0.68750000  1.0
  Li  Li611  1  0.50000000  0.06250000  0.93750000  1.0
  Li  Li612  1  0.50000000  0.31250000  0.18750000  1.0
  Li  Li613  1  0.50000000  0.31250000  0.43750000  1.0
  Li  Li614  1  0.50000000  0.31250000  0.68750000  1.0
  Li  Li615  1  0.50000000  0.31250000  0.93750000  1.0
  Li  Li616  1  0.50000000  0.56250000  0.18750000  1.0
  Li  Li617  1  0.50000000  0.56250000  0.43750000  1.0
  Li  Li618  1  0.50000000  0.56250000  0.68750000  1.0
  Li  Li619  1  0.50000000  0.56250000  0.93750000  1.0
  Li  Li620  1  0.50000000  0.81250000  0.18750000  1.0
  Li  Li621  1  0.50000000  0.81250000  0.43750000  1.0
  Li  Li622  1  0.50000000  0.81250000  0.68750000  1.0
  Li  Li623  1  0.50000000  0.81250000  0.93750000  1.0
  Li  Li624  1  0.75000000  0.06250000  0.18750000  1.0
  Li  Li625  1  0.75000000  0.06250000  0.43750000  1.0
  Li  Li626  1  0.75000000  0.06250000  0.68750000  1.0
  Li  Li627  1  0.75000000  0.06250000  0.93750000  1.0
  Li  Li628  1  0.75000000  0.31250000  0.18750000  1.0
  Li  Li629  1  0.75000000  0.31250000  0.43750000  1.0
  Li  Li630  1  0.75000000  0.31250000  0.68750000  1.0
  Li  Li631  1  0.75000000  0.31250000  0.93750000  1.0
  Li  Li632  1  0.75000000  0.56250000  0.18750000  1.0
  Li  Li633  1  0.75000000  0.56250000  0.43750000  1.0
  Li  Li634  1  0.75000000  0.56250000  0.68750000  1.0
  Li  Li635  1  0.75000000  0.56250000  0.93750000  1.0
  Li  Li636  1  0.75000000  0.81250000  0.18750000  1.0
  Li  Li637  1  0.75000000  0.81250000  0.43750000  1.0
  Li  Li638  1  0.75000000  0.81250000  0.68750000  1.0
  Li  Li639  1  0.75000000  0.81250000  0.93750000  1.0
  Li  Li640  1  0.06250000  0.06250000  0.12500000  1.0
  Li  Li641  1  0.06250000  0.06250000  0.37500000  1.0
  Li  Li642  1  0.06250000  0.06250000  0.62500000  1.0
  Li  Li643  1  0.06250000  0.06250000  0.87500000  1.0
  Li  Li644  1  0.06250000  0.31250000  0.12500000  1.0
  Li  Li645  1  0.06250000  0.31250000  0.37500000  1.0
  Li  Li646  1  0.06250000  0.31250000  0.62500000  1.0
  Li  Li647  1  0.06250000  0.31250000  0.87500000  1.0
  Li  Li648  1  0.06250000  0.56250000  0.12500000  1.0
  Li  Li649  1  0.06250000  0.56250000  0.37500000  1.0
  Li  Li650  1  0.06250000  0.56250000  0.62500000  1.0
  Li  Li651  1  0.06250000  0.56250000  0.87500000  1.0
  Li  Li652  1  0.06250000  0.81250000  0.12500000  1.0
  Li  Li653  1  0.06250000  0.81250000  0.37500000  1.0
  Li  Li654  1  0.06250000  0.81250000  0.62500000  1.0
  Li  Li655  1  0.06250000  0.81250000  0.87500000  1.0
  Li  Li656  1  0.31250000  0.06250000  0.12500000  1.0
  Li  Li657  1  0.31250000  0.06250000  0.37500000  1.0
  Li  Li658  1  0.31250000  0.06250000  0.62500000  1.0
  Li  Li659  1  0.31250000  0.06250000  0.87500000  1.0
  Li  Li660  1  0.31250000  0.31250000  0.12500000  1.0
  Li  Li661  1  0.31250000  0.31250000  0.37500000  1.0
  Li  Li662  1  0.31250000  0.31250000  0.62500000  1.0
  Li  Li663  1  0.31250000  0.31250000  0.87500000  1.0
  Li  Li664  1  0.31250000  0.56250000  0.12500000  1.0
  Li  Li665  1  0.31250000  0.56250000  0.37500000  1.0
  Li  Li666  1  0.31250000  0.56250000  0.62500000  1.0
  Li  Li667  1  0.31250000  0.56250000  0.87500000  1.0
  Li  Li668  1  0.31250000  0.81250000  0.12500000  1.0
  Li  Li669  1  0.31250000  0.81250000  0.37500000  1.0
  Li  Li670  1  0.31250000  0.81250000  0.62500000  1.0
  Li  Li671  1  0.31250000  0.81250000  0.87500000  1.0
  Li  Li672  1  0.56250000  0.06250000  0.12500000  1.0
  Li  Li673  1  0.56250000  0.06250000  0.37500000  1.0
  Li  Li674  1  0.56250000  0.06250000  0.62500000  1.0
  Li  Li675  1  0.56250000  0.06250000  0.87500000  1.0
  Li  Li676  1  0.56250000  0.31250000  0.12500000  1.0
  Li  Li677  1  0.56250000  0.31250000  0.37500000  1.0
  Li  Li678  1  0.56250000  0.31250000  0.62500000  1.0
  Li  Li679  1  0.56250000  0.31250000  0.87500000  1.0
  Li  Li680  1  0.56250000  0.56250000  0.12500000  1.0
  Li  Li681  1  0.56250000  0.56250000  0.37500000  1.0
  Li  Li682  1  0.56250000  0.56250000  0.62500000  1.0
  Li  Li683  1  0.56250000  0.56250000  0.87500000  1.0
  Li  Li684  1  0.56250000  0.81250000  0.12500000  1.0
  Li  Li685  1  0.56250000  0.81250000  0.37500000  1.0
  Li  Li686  1  0.56250000  0.81250000  0.62500000  1.0
  Li  Li687  1  0.56250000  0.81250000  0.87500000  1.0
  Li  Li688  1  0.81250000  0.06250000  0.12500000  1.0
  Li  Li689  1  0.81250000  0.06250000  0.37500000  1.0
  Li  Li690  1  0.81250000  0.06250000  0.62500000  1.0
  Li  Li691  1  0.81250000  0.06250000  0.87500000  1.0
  Li  Li692  1  0.81250000  0.31250000  0.12500000  1.0
  Li  Li693  1  0.81250000  0.31250000  0.37500000  1.0
  Li  Li694  1  0.81250000  0.31250000  0.62500000  1.0
  Li  Li695  1  0.81250000  0.31250000  0.87500000  1.0
  Li  Li696  1  0.81250000  0.56250000  0.12500000  1.0
  Li  Li697  1  0.81250000  0.56250000  0.37500000  1.0
  Li  Li698  1  0.81250000  0.56250000  0.62500000  1.0
  Li  Li699  1  0.81250000  0.56250000  0.87500000  1.0
  Li  Li700  1  0.81250000  0.81250000  0.12500000  1.0
  Li  Li701  1  0.81250000  0.81250000  0.37500000  1.0
  Li  Li702  1  0.81250000  0.81250000  0.62500000  1.0
  Li  Li703  1  0.81250000  0.81250000  0.87500000  1.0
  Li  Li704  1  0.18750000  0.06250000  0.00000000  1.0
  Li  Li705  1  0.18750000  0.06250000  0.25000000  1.0
  Li  Li706  1  0.18750000  0.06250000  0.50000000  1.0
  Li  Li707  1  0.18750000  0.06250000  0.75000000  1.0
  Li  Li708  1  0.18750000  0.31250000  1.00000000  1.0
  Li  Li709  1  0.18750000  0.31250000  0.25000000  1.0
  Li  Li710  1  0.18750000  0.31250000  0.50000000  1.0
  Li  Li711  1  0.18750000  0.31250000  0.75000000  1.0
  Li  Li712  1  0.18750000  0.56250000  1.00000000  1.0
  Li  Li713  1  0.18750000  0.56250000  0.25000000  1.0
  Li  Li714  1  0.18750000  0.56250000  0.50000000  1.0
  Li  Li715  1  0.18750000  0.56250000  0.75000000  1.0
  Li  Li716  1  0.18750000  0.81250000  1.00000000  1.0
  Li  Li717  1  0.18750000  0.81250000  0.25000000  1.0
  Li  Li718  1  0.18750000  0.81250000  0.50000000  1.0
  Li  Li719  1  0.18750000  0.81250000  0.75000000  1.0
  Li  Li720  1  0.43750000  0.06250000  0.00000000  1.0
  Li  Li721  1  0.43750000  0.06250000  0.25000000  1.0
  Li  Li722  1  0.43750000  0.06250000  0.50000000  1.0
  Li  Li723  1  0.43750000  0.06250000  0.75000000  1.0
  Li  Li724  1  0.43750000  0.31250000  1.00000000  1.0
  Li  Li725  1  0.43750000  0.31250000  0.25000000  1.0
  Li  Li726  1  0.43750000  0.31250000  0.50000000  1.0
  Li  Li727  1  0.43750000  0.31250000  0.75000000  1.0
  Li  Li728  1  0.43750000  0.56250000  1.00000000  1.0
  Li  Li729  1  0.43750000  0.56250000  0.25000000  1.0
  Li  Li730  1  0.43750000  0.56250000  0.50000000  1.0
  Li  Li731  1  0.43750000  0.56250000  0.75000000  1.0
  Li  Li732  1  0.43750000  0.81250000  1.00000000  1.0
  Li  Li733  1  0.43750000  0.81250000  0.25000000  1.0
  Li  Li734  1  0.43750000  0.81250000  0.50000000  1.0
  Li  Li735  1  0.43750000  0.81250000  0.75000000  1.0
  Li  Li736  1  0.68750000  0.06250000  0.00000000  1.0
  Li  Li737  1  0.68750000  0.06250000  0.25000000  1.0
  Li  Li738  1  0.68750000  0.06250000  0.50000000  1.0
  Li  Li739  1  0.68750000  0.06250000  0.75000000  1.0
  Li  Li740  1  0.68750000  0.31250000  0.00000000  1.0
  Li  Li741  1  0.68750000  0.31250000  0.25000000  1.0
  Li  Li742  1  0.68750000  0.31250000  0.50000000  1.0
  Li  Li743  1  0.68750000  0.31250000  0.75000000  1.0
  Li  Li744  1  0.68750000  0.56250000  1.00000000  1.0
  Li  Li745  1  0.68750000  0.56250000  0.25000000  1.0
  Li  Li746  1  0.68750000  0.56250000  0.50000000  1.0
  Li  Li747  1  0.68750000  0.56250000  0.75000000  1.0
  Li  Li748  1  0.68750000  0.81250000  1.00000000  1.0
  Li  Li749  1  0.68750000  0.81250000  0.25000000  1.0
  Li  Li750  1  0.68750000  0.81250000  0.50000000  1.0
  Li  Li751  1  0.68750000  0.81250000  0.75000000  1.0
  Li  Li752  1  0.93750000  0.06250000  0.00000000  1.0
  Li  Li753  1  0.93750000  0.06250000  0.25000000  1.0
  Li  Li754  1  0.93750000  0.06250000  0.50000000  1.0
  Li  Li755  1  0.93750000  0.06250000  0.75000000  1.0
  Li  Li756  1  0.93750000  0.31250000  0.00000000  1.0
  Li  Li757  1  0.93750000  0.31250000  0.25000000  1.0
  Li  Li758  1  0.93750000  0.31250000  0.50000000  1.0
  Li  Li759  1  0.93750000  0.31250000  0.75000000  1.0
  Li  Li760  1  0.93750000  0.56250000  0.00000000  1.0
  Li  Li761  1  0.93750000  0.56250000  0.25000000  1.0
  Li  Li762  1  0.93750000  0.56250000  0.50000000  1.0
  Li  Li763  1  0.93750000  0.56250000  0.75000000  1.0
  Li  Li764  1  0.93750000  0.81250000  1.00000000  1.0
  Li  Li765  1  0.93750000  0.81250000  0.25000000  1.0
  Li  Li766  1  0.93750000  0.81250000  0.50000000  1.0
  Li  Li767  1  0.93750000  0.81250000  0.75000000  1.0
  Li  Li768  1  0.18750000  0.18750000  0.12500000  1.0
  Li  Li769  1  0.18750000  0.18750000  0.37500000  1.0
  Li  Li770  1  0.18750000  0.18750000  0.62500000  1.0
  Li  Li771  1  0.18750000  0.18750000  0.87500000  1.0
  Li  Li772  1  0.18750000  0.43750000  0.12500000  1.0
  Li  Li773  1  0.18750000  0.43750000  0.37500000  1.0
  Li  Li774  1  0.18750000  0.43750000  0.62500000  1.0
  Li  Li775  1  0.18750000  0.43750000  0.87500000  1.0
  Li  Li776  1  0.18750000  0.68750000  0.12500000  1.0
  Li  Li777  1  0.18750000  0.68750000  0.37500000  1.0
  Li  Li778  1  0.18750000  0.68750000  0.62500000  1.0
  Li  Li779  1  0.18750000  0.68750000  0.87500000  1.0
  Li  Li780  1  0.18750000  0.93750000  0.12500000  1.0
  Li  Li781  1  0.18750000  0.93750000  0.37500000  1.0
  Li  Li782  1  0.18750000  0.93750000  0.62500000  1.0
  Li  Li783  1  0.18750000  0.93750000  0.87500000  1.0
  Li  Li784  1  0.43750000  0.18750000  0.12500000  1.0
  Li  Li785  1  0.43750000  0.18750000  0.37500000  1.0
  Li  Li786  1  0.43750000  0.18750000  0.62500000  1.0
  Li  Li787  1  0.43750000  0.18750000  0.87500000  1.0
  Li  Li788  1  0.43750000  0.43750000  0.12500000  1.0
  Li  Li789  1  0.43750000  0.43750000  0.37500000  1.0
  Li  Li790  1  0.43750000  0.43750000  0.62500000  1.0
  Li  Li791  1  0.43750000  0.43750000  0.87500000  1.0
  Li  Li792  1  0.43750000  0.68750000  0.12500000  1.0
  Li  Li793  1  0.43750000  0.68750000  0.37500000  1.0
  Li  Li794  1  0.43750000  0.68750000  0.62500000  1.0
  Li  Li795  1  0.43750000  0.68750000  0.87500000  1.0
  Li  Li796  1  0.43750000  0.93750000  0.12500000  1.0
  Li  Li797  1  0.43750000  0.93750000  0.37500000  1.0
  Li  Li798  1  0.43750000  0.93750000  0.62500000  1.0
  Li  Li799  1  0.43750000  0.93750000  0.87500000  1.0
  Li  Li800  1  0.68750000  0.18750000  0.12500000  1.0
  Li  Li801  1  0.68750000  0.18750000  0.37500000  1.0
  Li  Li802  1  0.68750000  0.18750000  0.62500000  1.0
  Li  Li803  1  0.68750000  0.18750000  0.87500000  1.0
  Li  Li804  1  0.68750000  0.43750000  0.12500000  1.0
  Li  Li805  1  0.68750000  0.43750000  0.37500000  1.0
  Li  Li806  1  0.68750000  0.43750000  0.62500000  1.0
  Li  Li807  1  0.68750000  0.43750000  0.87500000  1.0
  Li  Li808  1  0.68750000  0.68750000  0.12500000  1.0
  Li  Li809  1  0.68750000  0.68750000  0.37500000  1.0
  Li  Li810  1  0.68750000  0.68750000  0.62500000  1.0
  Li  Li811  1  0.68750000  0.68750000  0.87500000  1.0
  Li  Li812  1  0.68750000  0.93750000  0.12500000  1.0
  Li  Li813  1  0.68750000  0.93750000  0.37500000  1.0
  Li  Li814  1  0.68750000  0.93750000  0.62500000  1.0
  Li  Li815  1  0.68750000  0.93750000  0.87500000  1.0
  Li  Li816  1  0.93750000  0.18750000  0.12500000  1.0
  Li  Li817  1  0.93750000  0.18750000  0.37500000  1.0
  Li  Li818  1  0.93750000  0.18750000  0.62500000  1.0
  Li  Li819  1  0.93750000  0.18750000  0.87500000  1.0
  Li  Li820  1  0.93750000  0.43750000  0.12500000  1.0
  Li  Li821  1  0.93750000  0.43750000  0.37500000  1.0
  Li  Li822  1  0.93750000  0.43750000  0.62500000  1.0
  Li  Li823  1  0.93750000  0.43750000  0.87500000  1.0
  Li  Li824  1  0.93750000  0.68750000  0.12500000  1.0
  Li  Li825  1  0.93750000  0.68750000  0.37500000  1.0
  Li  Li826  1  0.93750000  0.68750000  0.62500000  1.0
  Li  Li827  1  0.93750000  0.68750000  0.87500000  1.0
  Li  Li828  1  0.93750000  0.93750000  0.12500000  1.0
  Li  Li829  1  0.93750000  0.93750000  0.37500000  1.0
  Li  Li830  1  0.93750000  0.93750000  0.62500000  1.0
  Li  Li831  1  0.93750000  0.93750000  0.87500000  1.0
  Li  Li832  1  0.06250000  0.00000000  0.18750000  1.0
  Li  Li833  1  0.06250000  0.00000000  0.43750000  1.0
  Li  Li834  1  0.06250000  0.00000000  0.68750000  1.0
  Li  Li835  1  0.06250000  0.00000000  0.93750000  1.0
  Li  Li836  1  0.06250000  0.25000000  0.18750000  1.0
  Li  Li837  1  0.06250000  0.25000000  0.43750000  1.0
  Li  Li838  1  0.06250000  0.25000000  0.68750000  1.0
  Li  Li839  1  0.06250000  0.25000000  0.93750000  1.0
  Li  Li840  1  0.06250000  0.50000000  0.18750000  1.0
  Li  Li841  1  0.06250000  0.50000000  0.43750000  1.0
  Li  Li842  1  0.06250000  0.50000000  0.68750000  1.0
  Li  Li843  1  0.06250000  0.50000000  0.93750000  1.0
  Li  Li844  1  0.06250000  0.75000000  0.18750000  1.0
  Li  Li845  1  0.06250000  0.75000000  0.43750000  1.0
  Li  Li846  1  0.06250000  0.75000000  0.68750000  1.0
  Li  Li847  1  0.06250000  0.75000000  0.93750000  1.0
  Li  Li848  1  0.31250000  0.00000000  0.18750000  1.0
  Li  Li849  1  0.31250000  0.00000000  0.43750000  1.0
  Li  Li850  1  0.31250000  0.00000000  0.68750000  1.0
  Li  Li851  1  0.31250000  0.00000000  0.93750000  1.0
  Li  Li852  1  0.31250000  0.25000000  0.18750000  1.0
  Li  Li853  1  0.31250000  0.25000000  0.43750000  1.0
  Li  Li854  1  0.31250000  0.25000000  0.68750000  1.0
  Li  Li855  1  0.31250000  0.25000000  0.93750000  1.0
  Li  Li856  1  0.31250000  0.50000000  0.18750000  1.0
  Li  Li857  1  0.31250000  0.50000000  0.43750000  1.0
  Li  Li858  1  0.31250000  0.50000000  0.68750000  1.0
  Li  Li859  1  0.31250000  0.50000000  0.93750000  1.0
  Li  Li860  1  0.31250000  0.75000000  0.18750000  1.0
  Li  Li861  1  0.31250000  0.75000000  0.43750000  1.0
  Li  Li862  1  0.31250000  0.75000000  0.68750000  1.0
  Li  Li863  1  0.31250000  0.75000000  0.93750000  1.0
  Li  Li864  1  0.56250000  0.00000000  0.18750000  1.0
  Li  Li865  1  0.56250000  0.00000000  0.43750000  1.0
  Li  Li866  1  0.56250000  0.00000000  0.68750000  1.0
  Li  Li867  1  0.56250000  0.00000000  0.93750000  1.0
  Li  Li868  1  0.56250000  0.25000000  0.18750000  1.0
  Li  Li869  1  0.56250000  0.25000000  0.43750000  1.0
  Li  Li870  1  0.56250000  0.25000000  0.68750000  1.0
  Li  Li871  1  0.56250000  0.25000000  0.93750000  1.0
  Li  Li872  1  0.56250000  0.50000000  0.18750000  1.0
  Li  Li873  1  0.56250000  0.50000000  0.43750000  1.0
  Li  Li874  1  0.56250000  0.50000000  0.68750000  1.0
  Li  Li875  1  0.56250000  0.50000000  0.93750000  1.0
  Li  Li876  1  0.56250000  0.75000000  0.18750000  1.0
  Li  Li877  1  0.56250000  0.75000000  0.43750000  1.0
  Li  Li878  1  0.56250000  0.75000000  0.68750000  1.0
  Li  Li879  1  0.56250000  0.75000000  0.93750000  1.0
  Li  Li880  1  0.81250000  0.00000000  0.18750000  1.0
  Li  Li881  1  0.81250000  0.00000000  0.43750000  1.0
  Li  Li882  1  0.81250000  0.00000000  0.68750000  1.0
  Li  Li883  1  0.81250000  0.00000000  0.93750000  1.0
  Li  Li884  1  0.81250000  0.25000000  0.18750000  1.0
  Li  Li885  1  0.81250000  0.25000000  0.43750000  1.0
  Li  Li886  1  0.81250000  0.25000000  0.68750000  1.0
  Li  Li887  1  0.81250000  0.25000000  0.93750000  1.0
  Li  Li888  1  0.81250000  0.50000000  0.18750000  1.0
  Li  Li889  1  0.81250000  0.50000000  0.43750000  1.0
  Li  Li890  1  0.81250000  0.50000000  0.68750000  1.0
  Li  Li891  1  0.81250000  0.50000000  0.93750000  1.0
  Li  Li892  1  0.81250000  0.75000000  0.18750000  1.0
  Li  Li893  1  0.81250000  0.75000000  0.43750000  1.0
  Li  Li894  1  0.81250000  0.75000000  0.68750000  1.0
  Li  Li895  1  0.81250000  0.75000000  0.93750000  1.0
  Li  Li896  1  0.18750000  0.00000000  0.06250000  1.0
  Li  Li897  1  0.18750000  0.00000000  0.31250000  1.0
  Li  Li898  1  0.18750000  0.00000000  0.56250000  1.0
  Li  Li899  1  0.18750000  0.00000000  0.81250000  1.0
  Li  Li900  1  0.18750000  0.25000000  0.06250000  1.0
  Li  Li901  1  0.18750000  0.25000000  0.31250000  1.0
  Li  Li902  1  0.18750000  0.25000000  0.56250000  1.0
  Li  Li903  1  0.18750000  0.25000000  0.81250000  1.0
  Li  Li904  1  0.18750000  0.50000000  0.06250000  1.0
  Li  Li905  1  0.18750000  0.50000000  0.31250000  1.0
  Li  Li906  1  0.18750000  0.50000000  0.56250000  1.0
  Li  Li907  1  0.18750000  0.50000000  0.81250000  1.0
  Li  Li908  1  0.18750000  0.75000000  0.06250000  1.0
  Li  Li909  1  0.18750000  0.75000000  0.31250000  1.0
  Li  Li910  1  0.18750000  0.75000000  0.56250000  1.0
  Li  Li911  1  0.18750000  0.75000000  0.81250000  1.0
  Li  Li912  1  0.43750000  0.00000000  0.06250000  1.0
  Li  Li913  1  0.43750000  0.00000000  0.31250000  1.0
  Li  Li914  1  0.43750000  0.00000000  0.56250000  1.0
  Li  Li915  1  0.43750000  0.00000000  0.81250000  1.0
  Li  Li916  1  0.43750000  0.25000000  0.06250000  1.0
  Li  Li917  1  0.43750000  0.25000000  0.31250000  1.0
  Li  Li918  1  0.43750000  0.25000000  0.56250000  1.0
  Li  Li919  1  0.43750000  0.25000000  0.81250000  1.0
  Li  Li920  1  0.43750000  0.50000000  0.06250000  1.0
  Li  Li921  1  0.43750000  0.50000000  0.31250000  1.0
  Li  Li922  1  0.43750000  0.50000000  0.56250000  1.0
  Li  Li923  1  0.43750000  0.50000000  0.81250000  1.0
  Li  Li924  1  0.43750000  0.75000000  0.06250000  1.0
  Li  Li925  1  0.43750000  0.75000000  0.31250000  1.0
  Li  Li926  1  0.43750000  0.75000000  0.56250000  1.0
  Li  Li927  1  0.43750000  0.75000000  0.81250000  1.0
  Li  Li928  1  0.68750000  0.00000000  0.06250000  1.0
  Li  Li929  1  0.68750000  0.00000000  0.31250000  1.0
  Li  Li930  1  0.68750000  0.00000000  0.56250000  1.0
  Li  Li931  1  0.68750000  0.00000000  0.81250000  1.0
  Li  Li932  1  0.68750000  0.25000000  0.06250000  1.0
  Li  Li933  1  0.68750000  0.25000000  0.31250000  1.0
  Li  Li934  1  0.68750000  0.25000000  0.56250000  1.0
  Li  Li935  1  0.68750000  0.25000000  0.81250000  1.0
  Li  Li936  1  0.68750000  0.50000000  0.06250000  1.0
  Li  Li937  1  0.68750000  0.50000000  0.31250000  1.0
  Li  Li938  1  0.68750000  0.50000000  0.56250000  1.0
  Li  Li939  1  0.68750000  0.50000000  0.81250000  1.0
  Li  Li940  1  0.68750000  0.75000000  0.06250000  1.0
  Li  Li941  1  0.68750000  0.75000000  0.31250000  1.0
  Li  Li942  1  0.68750000  0.75000000  0.56250000  1.0
  Li  Li943  1  0.68750000  0.75000000  0.81250000  1.0
  Li  Li944  1  0.93750000  0.00000000  0.06250000  1.0
  Li  Li945  1  0.93750000  0.00000000  0.31250000  1.0
  Li  Li946  1  0.93750000  0.00000000  0.56250000  1.0
  Li  Li947  1  0.93750000  0.00000000  0.81250000  1.0
  Li  Li948  1  0.93750000  0.25000000  0.06250000  1.0
  Li  Li949  1  0.93750000  0.25000000  0.31250000  1.0
  Li  Li950  1  0.93750000  0.25000000  0.56250000  1.0
  Li  Li951  1  0.93750000  0.25000000  0.81250000  1.0
  Li  Li952  1  0.93750000  0.50000000  0.06250000  1.0
  Li  Li953  1  0.93750000  0.50000000  0.31250000  1.0
  Li  Li954  1  0.93750000  0.50000000  0.56250000  1.0
  Li  Li955  1  0.93750000  0.50000000  0.81250000  1.0
  Li  Li956  1  0.93750000  0.75000000  0.06250000  1.0
  Li  Li957  1  0.93750000  0.75000000  0.31250000  1.0
  Li  Li958  1  0.93750000  0.75000000  0.56250000  1.0
  Li  Li959  1  0.93750000  0.75000000  0.81250000  1.0
  Li  Li960  1  1.00000000  0.12500000  1.00000000  1.0
  Li  Li961  1  1.00000000  0.12500000  0.25000000  1.0
  Li  Li962  1  1.00000000  0.12500000  0.50000000  1.0
  Li  Li963  1  1.00000000  0.12500000  0.75000000  1.0
  Li  Li964  1  0.00000000  0.37500000  1.00000000  1.0
  Li  Li965  1  0.00000000  0.37500000  0.25000000  1.0
  Li  Li966  1  0.00000000  0.37500000  0.50000000  1.0
  Li  Li967  1  0.00000000  0.37500000  0.75000000  1.0
  Li  Li968  1  1.00000000  0.62500000  1.00000000  1.0
  Li  Li969  1  1.00000000  0.62500000  0.25000000  1.0
  Li  Li970  1  1.00000000  0.62500000  0.50000000  1.0
  Li  Li971  1  1.00000000  0.62500000  0.75000000  1.0
  Li  Li972  1  0.00000000  0.87500000  1.00000000  1.0
  Li  Li973  1  0.00000000  0.87500000  0.25000000  1.0
  Li  Li974  1  0.00000000  0.87500000  0.50000000  1.0
  Li  Li975  1  0.00000000  0.87500000  0.75000000  1.0
  Li  Li976  1  0.25000000  0.12500000  0.00000000  1.0
  Li  Li977  1  0.25000000  0.12500000  0.25000000  1.0
  Li  Li978  1  0.25000000  0.12500000  0.50000000  1.0
  Li  Li979  1  0.25000000  0.12500000  0.75000000  1.0
  Li  Li980  1  0.25000000  0.37500000  1.00000000  1.0
  Li  Li981  1  0.25000000  0.37500000  0.25000000  1.0
  Li  Li982  1  0.25000000  0.37500000  0.50000000  1.0
  Li  Li983  1  0.25000000  0.37500000  0.75000000  1.0
  Li  Li984  1  0.25000000  0.62500000  1.00000000  1.0
  Li  Li985  1  0.25000000  0.62500000  0.25000000  1.0
  Li  Li986  1  0.25000000  0.62500000  0.50000000  1.0
  Li  Li987  1  0.25000000  0.62500000  0.75000000  1.0
  Li  Li988  1  0.25000000  0.87500000  1.00000000  1.0
  Li  Li989  1  0.25000000  0.87500000  0.25000000  1.0
  Li  Li990  1  0.25000000  0.87500000  0.50000000  1.0
  Li  Li991  1  0.25000000  0.87500000  0.75000000  1.0
  Li  Li992  1  0.50000000  0.12500000  0.00000000  1.0
  Li  Li993  1  0.50000000  0.12500000  0.25000000  1.0
  Li  Li994  1  0.50000000  0.12500000  0.50000000  1.0
  Li  Li995  1  0.50000000  0.12500000  0.75000000  1.0
  Li  Li996  1  0.50000000  0.37500000  0.00000000  1.0
  Li  Li997  1  0.50000000  0.37500000  0.25000000  1.0
  Li  Li998  1  0.50000000  0.37500000  0.50000000  1.0
  Li  Li999  1  0.50000000  0.37500000  0.75000000  1.0
  Li  Li1000  1  0.50000000  0.62500000  0.00000000  1.0
  Li  Li1001  1  0.50000000  0.62500000  0.25000000  1.0
  Li  Li1002  1  0.50000000  0.62500000  0.50000000  1.0
  Li  Li1003  1  0.50000000  0.62500000  0.75000000  1.0
  Li  Li1004  1  0.50000000  0.87500000  0.00000000  1.0
  Li  Li1005  1  0.50000000  0.87500000  0.25000000  1.0
  Li  Li1006  1  0.50000000  0.87500000  0.50000000  1.0
  Li  Li1007  1  0.50000000  0.87500000  0.75000000  1.0
  Li  Li1008  1  0.75000000  0.12500000  0.00000000  1.0
  Li  Li1009  1  0.75000000  0.12500000  0.25000000  1.0
  Li  Li1010  1  0.75000000  0.12500000  0.50000000  1.0
  Li  Li1011  1  0.75000000  0.12500000  0.75000000  1.0
  Li  Li1012  1  0.75000000  0.37500000  0.00000000  1.0
  Li  Li1013  1  0.75000000  0.37500000  0.25000000  1.0
  Li  Li1014  1  0.75000000  0.37500000  0.50000000  1.0
  Li  Li1015  1  0.75000000  0.37500000  0.75000000  1.0
  Li  Li1016  1  0.75000000  0.62500000  0.00000000  1.0
  Li  Li1017  1  0.75000000  0.62500000  0.25000000  1.0
  Li  Li1018  1  0.75000000  0.62500000  0.50000000  1.0
  Li  Li1019  1  0.75000000  0.62500000  0.75000000  1.0
  Li  Li1020  1  0.75000000  0.87500000  1.00000000  1.0
  Li  Li1021  1  0.75000000  0.87500000  0.25000000  1.0
  Li  Li1022  1  0.75000000  0.87500000  0.50000000  1.0
  Li  Li1023  1  0.75000000  0.87500000  0.75000000  1.0
  Li  Li1024  1  0.00000000  0.00000000  0.12500000  1.0
  Li  Li1025  1  0.00000000  0.00000000  0.37500000  1.0
  Li  Li1026  1  0.00000000  0.00000000  0.62500000  1.0
  Li  Li1027  1  0.00000000  0.00000000  0.87500000  1.0
  Li  Li1028  1  1.00000000  0.25000000  0.12500000  1.0
  Li  Li1029  1  1.00000000  0.25000000  0.37500000  1.0
  Li  Li1030  1  1.00000000  0.25000000  0.62500000  1.0
  Li  Li1031  1  1.00000000  0.25000000  0.87500000  1.0
  Li  Li1032  1  1.00000000  0.50000000  0.12500000  1.0
  Li  Li1033  1  1.00000000  0.50000000  0.37500000  1.0
  Li  Li1034  1  1.00000000  0.50000000  0.62500000  1.0
  Li  Li1035  1  1.00000000  0.50000000  0.87500000  1.0
  Li  Li1036  1  0.00000000  0.75000000  0.12500000  1.0
  Li  Li1037  1  0.00000000  0.75000000  0.37500000  1.0
  Li  Li1038  1  0.00000000  0.75000000  0.62500000  1.0
  Li  Li1039  1  0.00000000  0.75000000  0.87500000  1.0
  Li  Li1040  1  0.25000000  0.00000000  0.12500000  1.0
  Li  Li1041  1  0.25000000  0.00000000  0.37500000  1.0
  Li  Li1042  1  0.25000000  0.00000000  0.62500000  1.0
  Li  Li1043  1  0.25000000  0.00000000  0.87500000  1.0
  Li  Li1044  1  0.25000000  0.25000000  0.12500000  1.0
  Li  Li1045  1  0.25000000  0.25000000  0.37500000  1.0
  Li  Li1046  1  0.25000000  0.25000000  0.62500000  1.0
  Li  Li1047  1  0.25000000  0.25000000  0.87500000  1.0
  Li  Li1048  1  0.25000000  0.50000000  0.12500000  1.0
  Li  Li1049  1  0.25000000  0.50000000  0.37500000  1.0
  Li  Li1050  1  0.25000000  0.50000000  0.62500000  1.0
  Li  Li1051  1  0.25000000  0.50000000  0.87500000  1.0
  Li  Li1052  1  0.25000000  0.75000000  0.12500000  1.0
  Li  Li1053  1  0.25000000  0.75000000  0.37500000  1.0
  Li  Li1054  1  0.25000000  0.75000000  0.62500000  1.0
  Li  Li1055  1  0.25000000  0.75000000  0.87500000  1.0
  Li  Li1056  1  0.50000000  0.00000000  0.12500000  1.0
  Li  Li1057  1  0.50000000  0.00000000  0.37500000  1.0
  Li  Li1058  1  0.50000000  0.00000000  0.62500000  1.0
  Li  Li1059  1  0.50000000  0.00000000  0.87500000  1.0
  Li  Li1060  1  0.50000000  0.25000000  0.12500000  1.0
  Li  Li1061  1  0.50000000  0.25000000  0.37500000  1.0
  Li  Li1062  1  0.50000000  0.25000000  0.62500000  1.0
  Li  Li1063  1  0.50000000  0.25000000  0.87500000  1.0
  Li  Li1064  1  0.50000000  0.50000000  0.12500000  1.0
  Li  Li1065  1  0.50000000  0.50000000  0.37500000  1.0
  Li  Li1066  1  0.50000000  0.50000000  0.62500000  1.0
  Li  Li1067  1  0.50000000  0.50000000  0.87500000  1.0
  Li  Li1068  1  0.50000000  0.75000000  0.12500000  1.0
  Li  Li1069  1  0.50000000  0.75000000  0.37500000  1.0
  Li  Li1070  1  0.50000000  0.75000000  0.62500000  1.0
  Li  Li1071  1  0.50000000  0.75000000  0.87500000  1.0
  Li  Li1072  1  0.75000000  0.00000000  0.12500000  1.0
  Li  Li1073  1  0.75000000  0.00000000  0.37500000  1.0
  Li  Li1074  1  0.75000000  0.00000000  0.62500000  1.0
  Li  Li1075  1  0.75000000  0.00000000  0.87500000  1.0
  Li  Li1076  1  0.75000000  0.25000000  0.12500000  1.0
  Li  Li1077  1  0.75000000  0.25000000  0.37500000  1.0
  Li  Li1078  1  0.75000000  0.25000000  0.62500000  1.0
  Li  Li1079  1  0.75000000  0.25000000  0.87500000  1.0
  Li  Li1080  1  0.75000000  0.50000000  0.12500000  1.0
  Li  Li1081  1  0.75000000  0.50000000  0.37500000  1.0
  Li  Li1082  1  0.75000000  0.50000000  0.62500000  1.0
  Li  Li1083  1  0.75000000  0.50000000  0.87500000  1.0
  Li  Li1084  1  0.75000000  0.75000000  0.12500000  1.0
  Li  Li1085  1  0.75000000  0.75000000  0.37500000  1.0
  Li  Li1086  1  0.75000000  0.75000000  0.62500000  1.0
  Li  Li1087  1  0.75000000  0.75000000  0.87500000  1.0
  Sc  Sc1088  1  0.12500000  0.12500000  0.12500000  1.0
  Sc  Sc1089  1  0.12500000  0.12500000  0.37500000  1.0
  Sc  Sc1090  1  0.12500000  0.12500000  0.62500000  1.0
  Sc  Sc1091  1  0.12500000  0.12500000  0.87500000  1.0
  Sc  Sc1092  1  0.12500000  0.37500000  0.12500000  1.0
  Sc  Sc1093  1  0.12500000  0.37500000  0.37500000  1.0
  Sc  Sc1094  1  0.12500000  0.37500000  0.62500000  1.0
  Sc  Sc1095  1  0.12500000  0.37500000  0.87500000  1.0
  Sc  Sc1096  1  0.12500000  0.62500000  0.12500000  1.0
  Sc  Sc1097  1  0.12500000  0.62500000  0.37500000  1.0
  Sc  Sc1098  1  0.12500000  0.62500000  0.62500000  1.0
  Sc  Sc1099  1  0.12500000  0.62500000  0.87500000  1.0
  Sc  Sc1100  1  0.12500000  0.87500000  0.12500000  1.0
  Sc  Sc1101  1  0.12500000  0.87500000  0.37500000  1.0
  Sc  Sc1102  1  0.12500000  0.87500000  0.62500000  1.0
  Sc  Sc1103  1  0.12500000  0.87500000  0.87500000  1.0
  Sc  Sc1104  1  0.37500000  0.12500000  0.12500000  1.0
  Sc  Sc1105  1  0.37500000  0.12500000  0.37500000  1.0
  Sc  Sc1106  1  0.37500000  0.12500000  0.62500000  1.0
  Sc  Sc1107  1  0.37500000  0.12500000  0.87500000  1.0
  Sc  Sc1108  1  0.37500000  0.37500000  0.12500000  1.0
  Sc  Sc1109  1  0.37500000  0.37500000  0.37500000  1.0
  Sc  Sc1110  1  0.37500000  0.37500000  0.62500000  1.0
  Sc  Sc1111  1  0.37500000  0.37500000  0.87500000  1.0
  Sc  Sc1112  1  0.37500000  0.62500000  0.12500000  1.0
  Sc  Sc1113  1  0.37500000  0.62500000  0.37500000  1.0
  Sc  Sc1114  1  0.37500000  0.62500000  0.62500000  1.0
  Sc  Sc1115  1  0.37500000  0.62500000  0.87500000  1.0
  Sc  Sc1116  1  0.37500000  0.87500000  0.12500000  1.0
  Sc  Sc1117  1  0.37500000  0.87500000  0.37500000  1.0
  Sc  Sc1118  1  0.37500000  0.87500000  0.62500000  1.0
  Sc  Sc1119  1  0.37500000  0.87500000  0.87500000  1.0
  Sc  Sc1120  1  0.62500000  0.12500000  0.12500000  1.0
  Sc  Sc1121  1  0.62500000  0.12500000  0.37500000  1.0
  Sc  Sc1122  1  0.62500000  0.12500000  0.62500000  1.0
  Sc  Sc1123  1  0.62500000  0.12500000  0.87500000  1.0
  Sc  Sc1124  1  0.62500000  0.37500000  0.12500000  1.0
  Sc  Sc1125  1  0.62500000  0.37500000  0.37500000  1.0
  Sc  Sc1126  1  0.62500000  0.37500000  0.62500000  1.0
  Sc  Sc1127  1  0.62500000  0.37500000  0.87500000  1.0
  Sc  Sc1128  1  0.62500000  0.62500000  0.12500000  1.0
  Sc  Sc1129  1  0.62500000  0.62500000  0.37500000  1.0
  Sc  Sc1130  1  0.62500000  0.62500000  0.62500000  1.0
  Sc  Sc1131  1  0.62500000  0.62500000  0.87500000  1.0
  Sc  Sc1132  1  0.62500000  0.87500000  0.12500000  1.0
  Sc  Sc1133  1  0.62500000  0.87500000  0.37500000  1.0
  Sc  Sc1134  1  0.62500000  0.87500000  0.62500000  1.0
  Sc  Sc1135  1  0.62500000  0.87500000  0.87500000  1.0
  Sc  Sc1136  1  0.87500000  0.12500000  0.12500000  1.0
  Sc  Sc1137  1  0.87500000  0.12500000  0.37500000  1.0
  Sc  Sc1138  1  0.87500000  0.12500000  0.62500000  1.0
  Sc  Sc1139  1  0.87500000  0.12500000  0.87500000  1.0
  Sc  Sc1140  1  0.87500000  0.37500000  0.12500000  1.0
  Sc  Sc1141  1  0.87500000  0.37500000  0.37500000  1.0
  Sc  Sc1142  1  0.87500000  0.37500000  0.62500000  1.0
  Sc  Sc1143  1  0.87500000  0.37500000  0.87500000  1.0
  Sc  Sc1144  1  0.87500000  0.62500000  0.12500000  1.0
  Sc  Sc1145  1  0.87500000  0.62500000  0.37500000  1.0
  Sc  Sc1146  1  0.87500000  0.62500000  0.62500000  1.0
  Sc  Sc1147  1  0.87500000  0.62500000  0.87500000  1.0
  Sc  Sc1148  1  0.87500000  0.87500000  0.12500000  1.0
  Sc  Sc1149  1  0.87500000  0.87500000  0.37500000  1.0
  Sc  Sc1150  1  0.87500000  0.87500000  0.62500000  1.0
  Sc  Sc1151  1  0.87500000  0.87500000  0.87500000  1.0
  Sc  Sc1152  1  0.12500000  0.18750000  0.18750000  1.0
  Sc  Sc1153  1  0.12500000  0.18750000  0.43750000  1.0
  Sc  Sc1154  1  0.12500000  0.18750000  0.68750000  1.0
  Sc  Sc1155  1  0.12500000  0.18750000  0.93750000  1.0
  Sc  Sc1156  1  0.12500000  0.43750000  0.18750000  1.0
  Sc  Sc1157  1  0.12500000  0.43750000  0.43750000  1.0
  Sc  Sc1158  1  0.12500000  0.43750000  0.68750000  1.0
  Sc  Sc1159  1  0.12500000  0.43750000  0.93750000  1.0
  Sc  Sc1160  1  0.12500000  0.68750000  0.18750000  1.0
  Sc  Sc1161  1  0.12500000  0.68750000  0.43750000  1.0
  Sc  Sc1162  1  0.12500000  0.68750000  0.68750000  1.0
  Sc  Sc1163  1  0.12500000  0.68750000  0.93750000  1.0
  Sc  Sc1164  1  0.12500000  0.93750000  0.18750000  1.0
  Sc  Sc1165  1  0.12500000  0.93750000  0.43750000  1.0
  Sc  Sc1166  1  0.12500000  0.93750000  0.68750000  1.0
  Sc  Sc1167  1  0.12500000  0.93750000  0.93750000  1.0
  Sc  Sc1168  1  0.37500000  0.18750000  0.18750000  1.0
  Sc  Sc1169  1  0.37500000  0.18750000  0.43750000  1.0
  Sc  Sc1170  1  0.37500000  0.18750000  0.68750000  1.0
  Sc  Sc1171  1  0.37500000  0.18750000  0.93750000  1.0
  Sc  Sc1172  1  0.37500000  0.43750000  0.18750000  1.0
  Sc  Sc1173  1  0.37500000  0.43750000  0.43750000  1.0
  Sc  Sc1174  1  0.37500000  0.43750000  0.68750000  1.0
  Sc  Sc1175  1  0.37500000  0.43750000  0.93750000  1.0
  Sc  Sc1176  1  0.37500000  0.68750000  0.18750000  1.0
  Sc  Sc1177  1  0.37500000  0.68750000  0.43750000  1.0
  Sc  Sc1178  1  0.37500000  0.68750000  0.68750000  1.0
  Sc  Sc1179  1  0.37500000  0.68750000  0.93750000  1.0
  Sc  Sc1180  1  0.37500000  0.93750000  0.18750000  1.0
  Sc  Sc1181  1  0.37500000  0.93750000  0.43750000  1.0
  Sc  Sc1182  1  0.37500000  0.93750000  0.68750000  1.0
  Sc  Sc1183  1  0.37500000  0.93750000  0.93750000  1.0
  Sc  Sc1184  1  0.62500000  0.18750000  0.18750000  1.0
  Sc  Sc1185  1  0.62500000  0.18750000  0.43750000  1.0
  Sc  Sc1186  1  0.62500000  0.18750000  0.68750000  1.0
  Sc  Sc1187  1  0.62500000  0.18750000  0.93750000  1.0
  Sc  Sc1188  1  0.62500000  0.43750000  0.18750000  1.0
  Sc  Sc1189  1  0.62500000  0.43750000  0.43750000  1.0
  Sc  Sc1190  1  0.62500000  0.43750000  0.68750000  1.0
  Sc  Sc1191  1  0.62500000  0.43750000  0.93750000  1.0
  Sc  Sc1192  1  0.62500000  0.68750000  0.18750000  1.0
  Sc  Sc1193  1  0.62500000  0.68750000  0.43750000  1.0
  Sc  Sc1194  1  0.62500000  0.68750000  0.68750000  1.0
  Sc  Sc1195  1  0.62500000  0.68750000  0.93750000  1.0
  Sc  Sc1196  1  0.62500000  0.93750000  0.18750000  1.0
  Sc  Sc1197  1  0.62500000  0.93750000  0.43750000  1.0
  Sc  Sc1198  1  0.62500000  0.93750000  0.68750000  1.0
  Sc  Sc1199  1  0.62500000  0.93750000  0.93750000  1.0
  Sc  Sc1200  1  0.87500000  0.18750000  0.18750000  1.0
  Sc  Sc1201  1  0.87500000  0.18750000  0.43750000  1.0
  Sc  Sc1202  1  0.87500000  0.18750000  0.68750000  1.0
  Sc  Sc1203  1  0.87500000  0.18750000  0.93750000  1.0
  Sc  Sc1204  1  0.87500000  0.43750000  0.18750000  1.0
  Sc  Sc1205  1  0.87500000  0.43750000  0.43750000  1.0
  Sc  Sc1206  1  0.87500000  0.43750000  0.68750000  1.0
  Sc  Sc1207  1  0.87500000  0.43750000  0.93750000  1.0
  Sc  Sc1208  1  0.87500000  0.68750000  0.18750000  1.0
  Sc  Sc1209  1  0.87500000  0.68750000  0.43750000  1.0
  Sc  Sc1210  1  0.87500000  0.68750000  0.68750000  1.0
  Sc  Sc1211  1  0.87500000  0.68750000  0.93750000  1.0
  Sc  Sc1212  1  0.87500000  0.93750000  0.18750000  1.0
  Sc  Sc1213  1  0.87500000  0.93750000  0.43750000  1.0
  Sc  Sc1214  1  0.87500000  0.93750000  0.68750000  1.0
  Sc  Sc1215  1  0.87500000  0.93750000  0.93750000  1.0
  Sc  Sc1216  1  0.12500000  0.00000000  0.00000000  1.0
  Sc  Sc1217  1  0.12500000  0.00000000  0.25000000  1.0
  Sc  Sc1218  1  0.12500000  0.00000000  0.50000000  1.0
  Sc  Sc1219  1  0.12500000  0.00000000  0.75000000  1.0
  Sc  Sc1220  1  0.12500000  0.25000000  1.00000000  1.0
  Sc  Sc1221  1  0.12500000  0.25000000  0.25000000  1.0
  Sc  Sc1222  1  0.12500000  0.25000000  0.50000000  1.0
  Sc  Sc1223  1  0.12500000  0.25000000  0.75000000  1.0
  Sc  Sc1224  1  0.12500000  0.50000000  1.00000000  1.0
  Sc  Sc1225  1  0.12500000  0.50000000  0.25000000  1.0
  Sc  Sc1226  1  0.12500000  0.50000000  0.50000000  1.0
  Sc  Sc1227  1  0.12500000  0.50000000  0.75000000  1.0
  Sc  Sc1228  1  0.12500000  0.75000000  1.00000000  1.0
  Sc  Sc1229  1  0.12500000  0.75000000  0.25000000  1.0
  Sc  Sc1230  1  0.12500000  0.75000000  0.50000000  1.0
  Sc  Sc1231  1  0.12500000  0.75000000  0.75000000  1.0
  Sc  Sc1232  1  0.37500000  0.00000000  0.00000000  1.0
  Sc  Sc1233  1  0.37500000  0.00000000  0.25000000  1.0
  Sc  Sc1234  1  0.37500000  0.00000000  0.50000000  1.0
  Sc  Sc1235  1  0.37500000  0.00000000  0.75000000  1.0
  Sc  Sc1236  1  0.37500000  0.25000000  1.00000000  1.0
  Sc  Sc1237  1  0.37500000  0.25000000  0.25000000  1.0
  Sc  Sc1238  1  0.37500000  0.25000000  0.50000000  1.0
  Sc  Sc1239  1  0.37500000  0.25000000  0.75000000  1.0
  Sc  Sc1240  1  0.37500000  0.50000000  0.00000000  1.0
  Sc  Sc1241  1  0.37500000  0.50000000  0.25000000  1.0
  Sc  Sc1242  1  0.37500000  0.50000000  0.50000000  1.0
  Sc  Sc1243  1  0.37500000  0.50000000  0.75000000  1.0
  Sc  Sc1244  1  0.37500000  0.75000000  1.00000000  1.0
  Sc  Sc1245  1  0.37500000  0.75000000  0.25000000  1.0
  Sc  Sc1246  1  0.37500000  0.75000000  0.50000000  1.0
  Sc  Sc1247  1  0.37500000  0.75000000  0.75000000  1.0
  Sc  Sc1248  1  0.62500000  0.00000000  0.00000000  1.0
  Sc  Sc1249  1  0.62500000  0.00000000  0.25000000  1.0
  Sc  Sc1250  1  0.62500000  0.00000000  0.50000000  1.0
  Sc  Sc1251  1  0.62500000  0.00000000  0.75000000  1.0
  Sc  Sc1252  1  0.62500000  0.25000000  0.00000000  1.0
  Sc  Sc1253  1  0.62500000  0.25000000  0.25000000  1.0
  Sc  Sc1254  1  0.62500000  0.25000000  0.50000000  1.0
  Sc  Sc1255  1  0.62500000  0.25000000  0.75000000  1.0
  Sc  Sc1256  1  0.62500000  0.50000000  0.00000000  1.0
  Sc  Sc1257  1  0.62500000  0.50000000  0.25000000  1.0
  Sc  Sc1258  1  0.62500000  0.50000000  0.50000000  1.0
  Sc  Sc1259  1  0.62500000  0.50000000  0.75000000  1.0
  Sc  Sc1260  1  0.62500000  0.75000000  0.00000000  1.0
  Sc  Sc1261  1  0.62500000  0.75000000  0.25000000  1.0
  Sc  Sc1262  1  0.62500000  0.75000000  0.50000000  1.0
  Sc  Sc1263  1  0.62500000  0.75000000  0.75000000  1.0
  Sc  Sc1264  1  0.87500000  0.00000000  0.00000000  1.0
  Sc  Sc1265  1  0.87500000  0.00000000  0.25000000  1.0
  Sc  Sc1266  1  0.87500000  0.00000000  0.50000000  1.0
  Sc  Sc1267  1  0.87500000  0.00000000  0.75000000  1.0
  Sc  Sc1268  1  0.87500000  0.25000000  0.00000000  1.0
  Sc  Sc1269  1  0.87500000  0.25000000  0.25000000  1.0
  Sc  Sc1270  1  0.87500000  0.25000000  0.50000000  1.0
  Sc  Sc1271  1  0.87500000  0.25000000  0.75000000  1.0
  Sc  Sc1272  1  0.87500000  0.50000000  0.00000000  1.0
  Sc  Sc1273  1  0.87500000  0.50000000  0.25000000  1.0
  Sc  Sc1274  1  0.87500000  0.50000000  0.50000000  1.0
  Sc  Sc1275  1  0.87500000  0.50000000  0.75000000  1.0
  Sc  Sc1276  1  0.87500000  0.75000000  1.00000000  1.0
  Sc  Sc1277  1  0.87500000  0.75000000  0.25000000  1.0
  Sc  Sc1278  1  0.87500000  0.75000000  0.50000000  1.0
  Sc  Sc1279  1  0.87500000  0.75000000  0.75000000  1.0
  Sc  Sc1280  1  0.12500000  0.06250000  0.06250000  1.0
  Sc  Sc1281  1  0.12500000  0.06250000  0.31250000  1.0
  Sc  Sc1282  1  0.12500000  0.06250000  0.56250000  1.0
  Sc  Sc1283  1  0.12500000  0.06250000  0.81250000  1.0
  Sc  Sc1284  1  0.12500000  0.31250000  0.06250000  1.0
  Sc  Sc1285  1  0.12500000  0.31250000  0.31250000  1.0
  Sc  Sc1286  1  0.12500000  0.31250000  0.56250000  1.0
  Sc  Sc1287  1  0.12500000  0.31250000  0.81250000  1.0
  Sc  Sc1288  1  0.12500000  0.56250000  0.06250000  1.0
  Sc  Sc1289  1  0.12500000  0.56250000  0.31250000  1.0
  Sc  Sc1290  1  0.12500000  0.56250000  0.56250000  1.0
  Sc  Sc1291  1  0.12500000  0.56250000  0.81250000  1.0
  Sc  Sc1292  1  0.12500000  0.81250000  0.06250000  1.0
  Sc  Sc1293  1  0.12500000  0.81250000  0.31250000  1.0
  Sc  Sc1294  1  0.12500000  0.81250000  0.56250000  1.0
  Sc  Sc1295  1  0.12500000  0.81250000  0.81250000  1.0
  Sc  Sc1296  1  0.37500000  0.06250000  0.06250000  1.0
  Sc  Sc1297  1  0.37500000  0.06250000  0.31250000  1.0
  Sc  Sc1298  1  0.37500000  0.06250000  0.56250000  1.0
  Sc  Sc1299  1  0.37500000  0.06250000  0.81250000  1.0
  Sc  Sc1300  1  0.37500000  0.31250000  0.06250000  1.0
  Sc  Sc1301  1  0.37500000  0.31250000  0.31250000  1.0
  Sc  Sc1302  1  0.37500000  0.31250000  0.56250000  1.0
  Sc  Sc1303  1  0.37500000  0.31250000  0.81250000  1.0
  Sc  Sc1304  1  0.37500000  0.56250000  0.06250000  1.0
  Sc  Sc1305  1  0.37500000  0.56250000  0.31250000  1.0
  Sc  Sc1306  1  0.37500000  0.56250000  0.56250000  1.0
  Sc  Sc1307  1  0.37500000  0.56250000  0.81250000  1.0
  Sc  Sc1308  1  0.37500000  0.81250000  0.06250000  1.0
  Sc  Sc1309  1  0.37500000  0.81250000  0.31250000  1.0
  Sc  Sc1310  1  0.37500000  0.81250000  0.56250000  1.0
  Sc  Sc1311  1  0.37500000  0.81250000  0.81250000  1.0
  Sc  Sc1312  1  0.62500000  0.06250000  0.06250000  1.0
  Sc  Sc1313  1  0.62500000  0.06250000  0.31250000  1.0
  Sc  Sc1314  1  0.62500000  0.06250000  0.56250000  1.0
  Sc  Sc1315  1  0.62500000  0.06250000  0.81250000  1.0
  Sc  Sc1316  1  0.62500000  0.31250000  0.06250000  1.0
  Sc  Sc1317  1  0.62500000  0.31250000  0.31250000  1.0
  Sc  Sc1318  1  0.62500000  0.31250000  0.56250000  1.0
  Sc  Sc1319  1  0.62500000  0.31250000  0.81250000  1.0
  Sc  Sc1320  1  0.62500000  0.56250000  0.06250000  1.0
  Sc  Sc1321  1  0.62500000  0.56250000  0.31250000  1.0
  Sc  Sc1322  1  0.62500000  0.56250000  0.56250000  1.0
  Sc  Sc1323  1  0.62500000  0.56250000  0.81250000  1.0
  Sc  Sc1324  1  0.62500000  0.81250000  0.06250000  1.0
  Sc  Sc1325  1  0.62500000  0.81250000  0.31250000  1.0
  Sc  Sc1326  1  0.62500000  0.81250000  0.56250000  1.0
  Sc  Sc1327  1  0.62500000  0.81250000  0.81250000  1.0
  Sc  Sc1328  1  0.87500000  0.06250000  0.06250000  1.0
  Sc  Sc1329  1  0.87500000  0.06250000  0.31250000  1.0
  Sc  Sc1330  1  0.87500000  0.06250000  0.56250000  1.0
  Sc  Sc1331  1  0.87500000  0.06250000  0.81250000  1.0
  Sc  Sc1332  1  0.87500000  0.31250000  0.06250000  1.0
  Sc  Sc1333  1  0.87500000  0.31250000  0.31250000  1.0
  Sc  Sc1334  1  0.87500000  0.31250000  0.56250000  1.0
  Sc  Sc1335  1  0.87500000  0.31250000  0.81250000  1.0
  Sc  Sc1336  1  0.87500000  0.56250000  0.06250000  1.0
  Sc  Sc1337  1  0.87500000  0.56250000  0.31250000  1.0
  Sc  Sc1338  1  0.87500000  0.56250000  0.56250000  1.0
  Sc  Sc1339  1  0.87500000  0.56250000  0.81250000  1.0
  Sc  Sc1340  1  0.87500000  0.81250000  0.06250000  1.0
  Sc  Sc1341  1  0.87500000  0.81250000  0.31250000  1.0
  Sc  Sc1342  1  0.87500000  0.81250000  0.56250000  1.0
  Sc  Sc1343  1  0.87500000  0.81250000  0.81250000  1.0
  Sc  Sc1344  1  0.00000000  0.18750000  0.06250000  1.0
  Sc  Sc1345  1  0.00000000  0.18750000  0.31250000  1.0
  Sc  Sc1346  1  0.00000000  0.18750000  0.56250000  1.0
  Sc  Sc1347  1  0.00000000  0.18750000  0.81250000  1.0
  Sc  Sc1348  1  0.00000000  0.43750000  0.06250000  1.0
  Sc  Sc1349  1  0.00000000  0.43750000  0.31250000  1.0
  Sc  Sc1350  1  0.00000000  0.43750000  0.56250000  1.0
  Sc  Sc1351  1  0.00000000  0.43750000  0.81250000  1.0
  Sc  Sc1352  1  0.00000000  0.68750000  0.06250000  1.0
  Sc  Sc1353  1  0.00000000  0.68750000  0.31250000  1.0
  Sc  Sc1354  1  0.00000000  0.68750000  0.56250000  1.0
  Sc  Sc1355  1  0.00000000  0.68750000  0.81250000  1.0
  Sc  Sc1356  1  0.00000000  0.93750000  0.06250000  1.0
  Sc  Sc1357  1  0.00000000  0.93750000  0.31250000  1.0
  Sc  Sc1358  1  0.00000000  0.93750000  0.56250000  1.0
  Sc  Sc1359  1  0.00000000  0.93750000  0.81250000  1.0
  Sc  Sc1360  1  0.25000000  0.18750000  0.06250000  1.0
  Sc  Sc1361  1  0.25000000  0.18750000  0.31250000  1.0
  Sc  Sc1362  1  0.25000000  0.18750000  0.56250000  1.0
  Sc  Sc1363  1  0.25000000  0.18750000  0.81250000  1.0
  Sc  Sc1364  1  0.25000000  0.43750000  0.06250000  1.0
  Sc  Sc1365  1  0.25000000  0.43750000  0.31250000  1.0
  Sc  Sc1366  1  0.25000000  0.43750000  0.56250000  1.0
  Sc  Sc1367  1  0.25000000  0.43750000  0.81250000  1.0
  Sc  Sc1368  1  0.25000000  0.68750000  0.06250000  1.0
  Sc  Sc1369  1  0.25000000  0.68750000  0.31250000  1.0
  Sc  Sc1370  1  0.25000000  0.68750000  0.56250000  1.0
  Sc  Sc1371  1  0.25000000  0.68750000  0.81250000  1.0
  Sc  Sc1372  1  0.25000000  0.93750000  0.06250000  1.0
  Sc  Sc1373  1  0.25000000  0.93750000  0.31250000  1.0
  Sc  Sc1374  1  0.25000000  0.93750000  0.56250000  1.0
  Sc  Sc1375  1  0.25000000  0.93750000  0.81250000  1.0
  Sc  Sc1376  1  0.50000000  0.18750000  0.06250000  1.0
  Sc  Sc1377  1  0.50000000  0.18750000  0.31250000  1.0
  Sc  Sc1378  1  0.50000000  0.18750000  0.56250000  1.0
  Sc  Sc1379  1  0.50000000  0.18750000  0.81250000  1.0
  Sc  Sc1380  1  0.50000000  0.43750000  0.06250000  1.0
  Sc  Sc1381  1  0.50000000  0.43750000  0.31250000  1.0
  Sc  Sc1382  1  0.50000000  0.43750000  0.56250000  1.0
  Sc  Sc1383  1  0.50000000  0.43750000  0.81250000  1.0
  Sc  Sc1384  1  0.50000000  0.68750000  0.06250000  1.0
  Sc  Sc1385  1  0.50000000  0.68750000  0.31250000  1.0
  Sc  Sc1386  1  0.50000000  0.68750000  0.56250000  1.0
  Sc  Sc1387  1  0.50000000  0.68750000  0.81250000  1.0
  Sc  Sc1388  1  0.50000000  0.93750000  0.06250000  1.0
  Sc  Sc1389  1  0.50000000  0.93750000  0.31250000  1.0
  Sc  Sc1390  1  0.50000000  0.93750000  0.56250000  1.0
  Sc  Sc1391  1  0.50000000  0.93750000  0.81250000  1.0
  Sc  Sc1392  1  0.75000000  0.18750000  0.06250000  1.0
  Sc  Sc1393  1  0.75000000  0.18750000  0.31250000  1.0
  Sc  Sc1394  1  0.75000000  0.18750000  0.56250000  1.0
  Sc  Sc1395  1  0.75000000  0.18750000  0.81250000  1.0
  Sc  Sc1396  1  0.75000000  0.43750000  0.06250000  1.0
  Sc  Sc1397  1  0.75000000  0.43750000  0.31250000  1.0
  Sc  Sc1398  1  0.75000000  0.43750000  0.56250000  1.0
  Sc  Sc1399  1  0.75000000  0.43750000  0.81250000  1.0
  Sc  Sc1400  1  0.75000000  0.68750000  0.06250000  1.0
  Sc  Sc1401  1  0.75000000  0.68750000  0.31250000  1.0
  Sc  Sc1402  1  0.75000000  0.68750000  0.56250000  1.0
  Sc  Sc1403  1  0.75000000  0.68750000  0.81250000  1.0
  Sc  Sc1404  1  0.75000000  0.93750000  0.06250000  1.0
  Sc  Sc1405  1  0.75000000  0.93750000  0.31250000  1.0
  Sc  Sc1406  1  0.75000000  0.93750000  0.56250000  1.0
  Sc  Sc1407  1  0.75000000  0.93750000  0.81250000  1.0
  Cl  Cl1408  1  0.06358750  0.06358750  0.06358750  1.0
  Cl  Cl1409  1  0.06358750  0.06358750  0.31358750  1.0
  Cl  Cl1410  1  0.06358750  0.06358750  0.56358750  1.0
  Cl  Cl1411  1  0.06358750  0.06358750  0.81358750  1.0
  Cl  Cl1412  1  0.06358750  0.31358750  0.06358750  1.0
  Cl  Cl1413  1  0.06358750  0.31358750  0.31358750  1.0
  Cl  Cl1414  1  0.06358750  0.31358750  0.56358750  1.0
  Cl  Cl1415  1  0.06358750  0.31358750  0.81358750  1.0
  Cl  Cl1416  1  0.06358750  0.56358750  0.06358750  1.0
  Cl  Cl1417  1  0.06358750  0.56358750  0.31358750  1.0
  Cl  Cl1418  1  0.06358750  0.56358750  0.56358750  1.0
  Cl  Cl1419  1  0.06358750  0.56358750  0.81358750  1.0
  Cl  Cl1420  1  0.06358750  0.81358750  0.06358750  1.0
  Cl  Cl1421  1  0.06358750  0.81358750  0.31358750  1.0
  Cl  Cl1422  1  0.06358750  0.81358750  0.56358750  1.0
  Cl  Cl1423  1  0.06358750  0.81358750  0.81358750  1.0
  Cl  Cl1424  1  0.31358750  0.06358750  0.06358750  1.0
  Cl  Cl1425  1  0.31358750  0.06358750  0.31358750  1.0
  Cl  Cl1426  1  0.31358750  0.06358750  0.56358750  1.0
  Cl  Cl1427  1  0.31358750  0.06358750  0.81358750  1.0
  Cl  Cl1428  1  0.31358750  0.31358750  0.06358750  1.0
  Cl  Cl1429  1  0.31358750  0.31358750  0.31358750  1.0
  Cl  Cl1430  1  0.31358750  0.31358750  0.56358750  1.0
  Cl  Cl1431  1  0.31358750  0.31358750  0.81358750  1.0
  Cl  Cl1432  1  0.31358750  0.56358750  0.06358750  1.0
  Cl  Cl1433  1  0.31358750  0.56358750  0.31358750  1.0
  Cl  Cl1434  1  0.31358750  0.56358750  0.56358750  1.0
  Cl  Cl1435  1  0.31358750  0.56358750  0.81358750  1.0
  Cl  Cl1436  1  0.31358750  0.81358750  0.06358750  1.0
  Cl  Cl1437  1  0.31358750  0.81358750  0.31358750  1.0
  Cl  Cl1438  1  0.31358750  0.81358750  0.56358750  1.0
  Cl  Cl1439  1  0.31358750  0.81358750  0.81358750  1.0
  Cl  Cl1440  1  0.56358750  0.06358750  0.06358750  1.0
  Cl  Cl1441  1  0.56358750  0.06358750  0.31358750  1.0
  Cl  Cl1442  1  0.56358750  0.06358750  0.56358750  1.0
  Cl  Cl1443  1  0.56358750  0.06358750  0.81358750  1.0
  Cl  Cl1444  1  0.56358750  0.31358750  0.06358750  1.0
  Cl  Cl1445  1  0.56358750  0.31358750  0.31358750  1.0
  Cl  Cl1446  1  0.56358750  0.31358750  0.56358750  1.0
  Cl  Cl1447  1  0.56358750  0.31358750  0.81358750  1.0
  Cl  Cl1448  1  0.56358750  0.56358750  0.06358750  1.0
  Cl  Cl1449  1  0.56358750  0.56358750  0.31358750  1.0
  Cl  Cl1450  1  0.56358750  0.56358750  0.56358750  1.0
  Cl  Cl1451  1  0.56358750  0.56358750  0.81358750  1.0
  Cl  Cl1452  1  0.56358750  0.81358750  0.06358750  1.0
  Cl  Cl1453  1  0.56358750  0.81358750  0.31358750  1.0
  Cl  Cl1454  1  0.56358750  0.81358750  0.56358750  1.0
  Cl  Cl1455  1  0.56358750  0.81358750  0.81358750  1.0
  Cl  Cl1456  1  0.81358750  0.06358750  0.06358750  1.0
  Cl  Cl1457  1  0.81358750  0.06358750  0.31358750  1.0
  Cl  Cl1458  1  0.81358750  0.06358750  0.56358750  1.0
  Cl  Cl1459  1  0.81358750  0.06358750  0.81358750  1.0
  Cl  Cl1460  1  0.81358750  0.31358750  0.06358750  1.0
  Cl  Cl1461  1  0.81358750  0.31358750  0.31358750  1.0
  Cl  Cl1462  1  0.81358750  0.31358750  0.56358750  1.0
  Cl  Cl1463  1  0.81358750  0.31358750  0.81358750  1.0
  Cl  Cl1464  1  0.81358750  0.56358750  0.06358750  1.0
  Cl  Cl1465  1  0.81358750  0.56358750  0.31358750  1.0
  Cl  Cl1466  1  0.81358750  0.56358750  0.56358750  1.0
  Cl  Cl1467  1  0.81358750  0.56358750  0.81358750  1.0
  Cl  Cl1468  1  0.81358750  0.81358750  0.06358750  1.0
  Cl  Cl1469  1  0.81358750  0.81358750  0.31358750  1.0
  Cl  Cl1470  1  0.81358750  0.81358750  0.56358750  1.0
  Cl  Cl1471  1  0.81358750  0.81358750  0.81358750  1.0
  Cl  Cl1472  1  0.18641250  0.12608750  0.12608750  1.0
  Cl  Cl1473  1  0.18641250  0.12608750  0.37608750  1.0
  Cl  Cl1474  1  0.18641250  0.12608750  0.62608750  1.0
  Cl  Cl1475  1  0.18641250  0.12608750  0.87608750  1.0
  Cl  Cl1476  1  0.18641250  0.37608750  0.12608750  1.0
  Cl  Cl1477  1  0.18641250  0.37608750  0.37608750  1.0
  Cl  Cl1478  1  0.18641250  0.37608750  0.62608750  1.0
  Cl  Cl1479  1  0.18641250  0.37608750  0.87608750  1.0
  Cl  Cl1480  1  0.18641250  0.62608750  0.12608750  1.0
  Cl  Cl1481  1  0.18641250  0.62608750  0.37608750  1.0
  Cl  Cl1482  1  0.18641250  0.62608750  0.62608750  1.0
  Cl  Cl1483  1  0.18641250  0.62608750  0.87608750  1.0
  Cl  Cl1484  1  0.18641250  0.87608750  0.12608750  1.0
  Cl  Cl1485  1  0.18641250  0.87608750  0.37608750  1.0
  Cl  Cl1486  1  0.18641250  0.87608750  0.62608750  1.0
  Cl  Cl1487  1  0.18641250  0.87608750  0.87608750  1.0
  Cl  Cl1488  1  0.43641250  0.12608750  0.12608750  1.0
  Cl  Cl1489  1  0.43641250  0.12608750  0.37608750  1.0
  Cl  Cl1490  1  0.43641250  0.12608750  0.62608750  1.0
  Cl  Cl1491  1  0.43641250  0.12608750  0.87608750  1.0
  Cl  Cl1492  1  0.43641250  0.37608750  0.12608750  1.0
  Cl  Cl1493  1  0.43641250  0.37608750  0.37608750  1.0
  Cl  Cl1494  1  0.43641250  0.37608750  0.62608750  1.0
  Cl  Cl1495  1  0.43641250  0.37608750  0.87608750  1.0
  Cl  Cl1496  1  0.43641250  0.62608750  0.12608750  1.0
  Cl  Cl1497  1  0.43641250  0.62608750  0.37608750  1.0
  Cl  Cl1498  1  0.43641250  0.62608750  0.62608750  1.0
  Cl  Cl1499  1  0.43641250  0.62608750  0.87608750  1.0
  Cl  Cl1500  1  0.43641250  0.87608750  0.12608750  1.0
  Cl  Cl1501  1  0.43641250  0.87608750  0.37608750  1.0
  Cl  Cl1502  1  0.43641250  0.87608750  0.62608750  1.0
  Cl  Cl1503  1  0.43641250  0.87608750  0.87608750  1.0
  Cl  Cl1504  1  0.68641250  0.12608750  0.12608750  1.0
  Cl  Cl1505  1  0.68641250  0.12608750  0.37608750  1.0
  Cl  Cl1506  1  0.68641250  0.12608750  0.62608750  1.0
  Cl  Cl1507  1  0.68641250  0.12608750  0.87608750  1.0
  Cl  Cl1508  1  0.68641250  0.37608750  0.12608750  1.0
  Cl  Cl1509  1  0.68641250  0.37608750  0.37608750  1.0
  Cl  Cl1510  1  0.68641250  0.37608750  0.62608750  1.0
  Cl  Cl1511  1  0.68641250  0.37608750  0.87608750  1.0
  Cl  Cl1512  1  0.68641250  0.62608750  0.12608750  1.0
  Cl  Cl1513  1  0.68641250  0.62608750  0.37608750  1.0
  Cl  Cl1514  1  0.68641250  0.62608750  0.62608750  1.0
  Cl  Cl1515  1  0.68641250  0.62608750  0.87608750  1.0
  Cl  Cl1516  1  0.68641250  0.87608750  0.12608750  1.0
  Cl  Cl1517  1  0.68641250  0.87608750  0.37608750  1.0
  Cl  Cl1518  1  0.68641250  0.87608750  0.62608750  1.0
  Cl  Cl1519  1  0.68641250  0.87608750  0.87608750  1.0
  Cl  Cl1520  1  0.93641250  0.12608750  0.12608750  1.0
  Cl  Cl1521  1  0.93641250  0.12608750  0.37608750  1.0
  Cl  Cl1522  1  0.93641250  0.12608750  0.62608750  1.0
  Cl  Cl1523  1  0.93641250  0.12608750  0.87608750  1.0
  Cl  Cl1524  1  0.93641250  0.37608750  0.12608750  1.0
  Cl  Cl1525  1  0.93641250  0.37608750  0.37608750  1.0
  Cl  Cl1526  1  0.93641250  0.37608750  0.62608750  1.0
  Cl  Cl1527  1  0.93641250  0.37608750  0.87608750  1.0
  Cl  Cl1528  1  0.93641250  0.62608750  0.12608750  1.0
  Cl  Cl1529  1  0.93641250  0.62608750  0.37608750  1.0
  Cl  Cl1530  1  0.93641250  0.62608750  0.62608750  1.0
  Cl  Cl1531  1  0.93641250  0.62608750  0.87608750  1.0
  Cl  Cl1532  1  0.93641250  0.87608750  0.12608750  1.0
  Cl  Cl1533  1  0.93641250  0.87608750  0.37608750  1.0
  Cl  Cl1534  1  0.93641250  0.87608750  0.62608750  1.0
  Cl  Cl1535  1  0.93641250  0.87608750  0.87608750  1.0
  Cl  Cl1536  1  0.12391250  0.24891250  0.18858750  1.0
  Cl  Cl1537  1  0.12391250  0.24891250  0.43858750  1.0
  Cl  Cl1538  1  0.12391250  0.24891250  0.68858750  1.0
  Cl  Cl1539  1  0.12391250  0.24891250  0.93858750  1.0
  Cl  Cl1540  1  0.12391250  0.49891250  0.18858750  1.0
  Cl  Cl1541  1  0.12391250  0.49891250  0.43858750  1.0
  Cl  Cl1542  1  0.12391250  0.49891250  0.68858750  1.0
  Cl  Cl1543  1  0.12391250  0.49891250  0.93858750  1.0
  Cl  Cl1544  1  0.12391250  0.74891250  0.18858750  1.0
  Cl  Cl1545  1  0.12391250  0.74891250  0.43858750  1.0
  Cl  Cl1546  1  0.12391250  0.74891250  0.68858750  1.0
  Cl  Cl1547  1  0.12391250  0.74891250  0.93858750  1.0
  Cl  Cl1548  1  0.12391250  0.99891250  0.18858750  1.0
  Cl  Cl1549  1  0.12391250  0.99891250  0.43858750  1.0
  Cl  Cl1550  1  0.12391250  0.99891250  0.68858750  1.0
  Cl  Cl1551  1  0.12391250  0.99891250  0.93858750  1.0
  Cl  Cl1552  1  0.37391250  0.24891250  0.18858750  1.0
  Cl  Cl1553  1  0.37391250  0.24891250  0.43858750  1.0
  Cl  Cl1554  1  0.37391250  0.24891250  0.68858750  1.0
  Cl  Cl1555  1  0.37391250  0.24891250  0.93858750  1.0
  Cl  Cl1556  1  0.37391250  0.49891250  0.18858750  1.0
  Cl  Cl1557  1  0.37391250  0.49891250  0.43858750  1.0
  Cl  Cl1558  1  0.37391250  0.49891250  0.68858750  1.0
  Cl  Cl1559  1  0.37391250  0.49891250  0.93858750  1.0
  Cl  Cl1560  1  0.37391250  0.74891250  0.18858750  1.0
  Cl  Cl1561  1  0.37391250  0.74891250  0.43858750  1.0
  Cl  Cl1562  1  0.37391250  0.74891250  0.68858750  1.0
  Cl  Cl1563  1  0.37391250  0.74891250  0.93858750  1.0
  Cl  Cl1564  1  0.37391250  0.99891250  0.18858750  1.0
  Cl  Cl1565  1  0.37391250  0.99891250  0.43858750  1.0
  Cl  Cl1566  1  0.37391250  0.99891250  0.68858750  1.0
  Cl  Cl1567  1  0.37391250  0.99891250  0.93858750  1.0
  Cl  Cl1568  1  0.62391250  0.24891250  0.18858750  1.0
  Cl  Cl1569  1  0.62391250  0.24891250  0.43858750  1.0
  Cl  Cl1570  1  0.62391250  0.24891250  0.68858750  1.0
  Cl  Cl1571  1  0.62391250  0.24891250  0.93858750  1.0
  Cl  Cl1572  1  0.62391250  0.49891250  0.18858750  1.0
  Cl  Cl1573  1  0.62391250  0.49891250  0.43858750  1.0
  Cl  Cl1574  1  0.62391250  0.49891250  0.68858750  1.0
  Cl  Cl1575  1  0.62391250  0.49891250  0.93858750  1.0
  Cl  Cl1576  1  0.62391250  0.74891250  0.18858750  1.0
  Cl  Cl1577  1  0.62391250  0.74891250  0.43858750  1.0
  Cl  Cl1578  1  0.62391250  0.74891250  0.68858750  1.0
  Cl  Cl1579  1  0.62391250  0.74891250  0.93858750  1.0
  Cl  Cl1580  1  0.62391250  0.99891250  0.18858750  1.0
  Cl  Cl1581  1  0.62391250  0.99891250  0.43858750  1.0
  Cl  Cl1582  1  0.62391250  0.99891250  0.68858750  1.0
  Cl  Cl1583  1  0.62391250  0.99891250  0.93858750  1.0
  Cl  Cl1584  1  0.87391250  0.24891250  0.18858750  1.0
  Cl  Cl1585  1  0.87391250  0.24891250  0.43858750  1.0
  Cl  Cl1586  1  0.87391250  0.24891250  0.68858750  1.0
  Cl  Cl1587  1  0.87391250  0.24891250  0.93858750  1.0
  Cl  Cl1588  1  0.87391250  0.49891250  0.18858750  1.0
  Cl  Cl1589  1  0.87391250  0.49891250  0.43858750  1.0
  Cl  Cl1590  1  0.87391250  0.49891250  0.68858750  1.0
  Cl  Cl1591  1  0.87391250  0.49891250  0.93858750  1.0
  Cl  Cl1592  1  0.87391250  0.74891250  0.18858750  1.0
  Cl  Cl1593  1  0.87391250  0.74891250  0.43858750  1.0
  Cl  Cl1594  1  0.87391250  0.74891250  0.68858750  1.0
  Cl  Cl1595  1  0.87391250  0.74891250  0.93858750  1.0
  Cl  Cl1596  1  0.87391250  0.99891250  0.18858750  1.0
  Cl  Cl1597  1  0.87391250  0.99891250  0.43858750  1.0
  Cl  Cl1598  1  0.87391250  0.99891250  0.68858750  1.0
  Cl  Cl1599  1  0.87391250  0.99891250  0.93858750  1.0
  Cl  Cl1600  1  0.00108750  0.18641250  0.00108750  1.0
  Cl  Cl1601  1  0.00108750  0.18641250  0.25108750  1.0
  Cl  Cl1602  1  0.00108750  0.18641250  0.50108750  1.0
  Cl  Cl1603  1  0.00108750  0.18641250  0.75108750  1.0
  Cl  Cl1604  1  0.00108750  0.43641250  0.00108750  1.0
  Cl  Cl1605  1  0.00108750  0.43641250  0.25108750  1.0
  Cl  Cl1606  1  0.00108750  0.43641250  0.50108750  1.0
  Cl  Cl1607  1  0.00108750  0.43641250  0.75108750  1.0
  Cl  Cl1608  1  0.00108750  0.68641250  0.00108750  1.0
  Cl  Cl1609  1  0.00108750  0.68641250  0.25108750  1.0
  Cl  Cl1610  1  0.00108750  0.68641250  0.50108750  1.0
  Cl  Cl1611  1  0.00108750  0.68641250  0.75108750  1.0
  Cl  Cl1612  1  0.00108750  0.93641250  0.00108750  1.0
  Cl  Cl1613  1  0.00108750  0.93641250  0.25108750  1.0
  Cl  Cl1614  1  0.00108750  0.93641250  0.50108750  1.0
  Cl  Cl1615  1  0.00108750  0.93641250  0.75108750  1.0
  Cl  Cl1616  1  0.25108750  0.18641250  0.00108750  1.0
  Cl  Cl1617  1  0.25108750  0.18641250  0.25108750  1.0
  Cl  Cl1618  1  0.25108750  0.18641250  0.50108750  1.0
  Cl  Cl1619  1  0.25108750  0.18641250  0.75108750  1.0
  Cl  Cl1620  1  0.25108750  0.43641250  0.00108750  1.0
  Cl  Cl1621  1  0.25108750  0.43641250  0.25108750  1.0
  Cl  Cl1622  1  0.25108750  0.43641250  0.50108750  1.0
  Cl  Cl1623  1  0.25108750  0.43641250  0.75108750  1.0
  Cl  Cl1624  1  0.25108750  0.68641250  0.00108750  1.0
  Cl  Cl1625  1  0.25108750  0.68641250  0.25108750  1.0
  Cl  Cl1626  1  0.25108750  0.68641250  0.50108750  1.0
  Cl  Cl1627  1  0.25108750  0.68641250  0.75108750  1.0
  Cl  Cl1628  1  0.25108750  0.93641250  0.00108750  1.0
  Cl  Cl1629  1  0.25108750  0.93641250  0.25108750  1.0
  Cl  Cl1630  1  0.25108750  0.93641250  0.50108750  1.0
  Cl  Cl1631  1  0.25108750  0.93641250  0.75108750  1.0
  Cl  Cl1632  1  0.50108750  0.18641250  0.00108750  1.0
  Cl  Cl1633  1  0.50108750  0.18641250  0.25108750  1.0
  Cl  Cl1634  1  0.50108750  0.18641250  0.50108750  1.0
  Cl  Cl1635  1  0.50108750  0.18641250  0.75108750  1.0
  Cl  Cl1636  1  0.50108750  0.43641250  0.00108750  1.0
  Cl  Cl1637  1  0.50108750  0.43641250  0.25108750  1.0
  Cl  Cl1638  1  0.50108750  0.43641250  0.50108750  1.0
  Cl  Cl1639  1  0.50108750  0.43641250  0.75108750  1.0
  Cl  Cl1640  1  0.50108750  0.68641250  0.00108750  1.0
  Cl  Cl1641  1  0.50108750  0.68641250  0.25108750  1.0
  Cl  Cl1642  1  0.50108750  0.68641250  0.50108750  1.0
  Cl  Cl1643  1  0.50108750  0.68641250  0.75108750  1.0
  Cl  Cl1644  1  0.50108750  0.93641250  0.00108750  1.0
  Cl  Cl1645  1  0.50108750  0.93641250  0.25108750  1.0
  Cl  Cl1646  1  0.50108750  0.93641250  0.50108750  1.0
  Cl  Cl1647  1  0.50108750  0.93641250  0.75108750  1.0
  Cl  Cl1648  1  0.75108750  0.18641250  0.00108750  1.0
  Cl  Cl1649  1  0.75108750  0.18641250  0.25108750  1.0
  Cl  Cl1650  1  0.75108750  0.18641250  0.50108750  1.0
  Cl  Cl1651  1  0.75108750  0.18641250  0.75108750  1.0
  Cl  Cl1652  1  0.75108750  0.43641250  0.00108750  1.0
  Cl  Cl1653  1  0.75108750  0.43641250  0.25108750  1.0
  Cl  Cl1654  1  0.75108750  0.43641250  0.50108750  1.0
  Cl  Cl1655  1  0.75108750  0.43641250  0.75108750  1.0
  Cl  Cl1656  1  0.75108750  0.68641250  0.00108750  1.0
  Cl  Cl1657  1  0.75108750  0.68641250  0.25108750  1.0
  Cl  Cl1658  1  0.75108750  0.68641250  0.50108750  1.0
  Cl  Cl1659  1  0.75108750  0.68641250  0.75108750  1.0
  Cl  Cl1660  1  0.75108750  0.93641250  0.00108750  1.0
  Cl  Cl1661  1  0.75108750  0.93641250  0.25108750  1.0
  Cl  Cl1662  1  0.75108750  0.93641250  0.50108750  1.0
  Cl  Cl1663  1  0.75108750  0.93641250  0.75108750  1.0
  Cl  Cl1664  1  0.06358750  0.24891250  0.24891250  1.0
  Cl  Cl1665  1  0.06358750  0.24891250  0.49891250  1.0
  Cl  Cl1666  1  0.06358750  0.24891250  0.74891250  1.0
  Cl  Cl1667  1  0.06358750  0.24891250  0.99891250  1.0
  Cl  Cl1668  1  0.06358750  0.49891250  0.24891250  1.0
  Cl  Cl1669  1  0.06358750  0.49891250  0.49891250  1.0
  Cl  Cl1670  1  0.06358750  0.49891250  0.74891250  1.0
  Cl  Cl1671  1  0.06358750  0.49891250  0.99891250  1.0
  Cl  Cl1672  1  0.06358750  0.74891250  0.24891250  1.0
  Cl  Cl1673  1  0.06358750  0.74891250  0.49891250  1.0
  Cl  Cl1674  1  0.06358750  0.74891250  0.74891250  1.0
  Cl  Cl1675  1  0.06358750  0.74891250  0.99891250  1.0
  Cl  Cl1676  1  0.06358750  0.99891250  0.24891250  1.0
  Cl  Cl1677  1  0.06358750  0.99891250  0.49891250  1.0
  Cl  Cl1678  1  0.06358750  0.99891250  0.74891250  1.0
  Cl  Cl1679  1  0.06358750  0.99891250  0.99891250  1.0
  Cl  Cl1680  1  0.31358750  0.24891250  0.24891250  1.0
  Cl  Cl1681  1  0.31358750  0.24891250  0.49891250  1.0
  Cl  Cl1682  1  0.31358750  0.24891250  0.74891250  1.0
  Cl  Cl1683  1  0.31358750  0.24891250  0.99891250  1.0
  Cl  Cl1684  1  0.31358750  0.49891250  0.24891250  1.0
  Cl  Cl1685  1  0.31358750  0.49891250  0.49891250  1.0
  Cl  Cl1686  1  0.31358750  0.49891250  0.74891250  1.0
  Cl  Cl1687  1  0.31358750  0.49891250  0.99891250  1.0
  Cl  Cl1688  1  0.31358750  0.74891250  0.24891250  1.0
  Cl  Cl1689  1  0.31358750  0.74891250  0.49891250  1.0
  Cl  Cl1690  1  0.31358750  0.74891250  0.74891250  1.0
  Cl  Cl1691  1  0.31358750  0.74891250  0.99891250  1.0
  Cl  Cl1692  1  0.31358750  0.99891250  0.24891250  1.0
  Cl  Cl1693  1  0.31358750  0.99891250  0.49891250  1.0
  Cl  Cl1694  1  0.31358750  0.99891250  0.74891250  1.0
  Cl  Cl1695  1  0.31358750  0.99891250  0.99891250  1.0
  Cl  Cl1696  1  0.56358750  0.24891250  0.24891250  1.0
  Cl  Cl1697  1  0.56358750  0.24891250  0.49891250  1.0
  Cl  Cl1698  1  0.56358750  0.24891250  0.74891250  1.0
  Cl  Cl1699  1  0.56358750  0.24891250  0.99891250  1.0
  Cl  Cl1700  1  0.56358750  0.49891250  0.24891250  1.0
  Cl  Cl1701  1  0.56358750  0.49891250  0.49891250  1.0
  Cl  Cl1702  1  0.56358750  0.49891250  0.74891250  1.0
  Cl  Cl1703  1  0.56358750  0.49891250  0.99891250  1.0
  Cl  Cl1704  1  0.56358750  0.74891250  0.24891250  1.0
  Cl  Cl1705  1  0.56358750  0.74891250  0.49891250  1.0
  Cl  Cl1706  1  0.56358750  0.74891250  0.74891250  1.0
  Cl  Cl1707  1  0.56358750  0.74891250  0.99891250  1.0
  Cl  Cl1708  1  0.56358750  0.99891250  0.24891250  1.0
  Cl  Cl1709  1  0.56358750  0.99891250  0.49891250  1.0
  Cl  Cl1710  1  0.56358750  0.99891250  0.74891250  1.0
  Cl  Cl1711  1  0.56358750  0.99891250  0.99891250  1.0
  Cl  Cl1712  1  0.81358750  0.24891250  0.24891250  1.0
  Cl  Cl1713  1  0.81358750  0.24891250  0.49891250  1.0
  Cl  Cl1714  1  0.81358750  0.24891250  0.74891250  1.0
  Cl  Cl1715  1  0.81358750  0.24891250  0.99891250  1.0
  Cl  Cl1716  1  0.81358750  0.49891250  0.24891250  1.0
  Cl  Cl1717  1  0.81358750  0.49891250  0.49891250  1.0
  Cl  Cl1718  1  0.81358750  0.49891250  0.74891250  1.0
  Cl  Cl1719  1  0.81358750  0.49891250  0.99891250  1.0
  Cl  Cl1720  1  0.81358750  0.74891250  0.24891250  1.0
  Cl  Cl1721  1  0.81358750  0.74891250  0.49891250  1.0
  Cl  Cl1722  1  0.81358750  0.74891250  0.74891250  1.0
  Cl  Cl1723  1  0.81358750  0.74891250  0.99891250  1.0
  Cl  Cl1724  1  0.81358750  0.99891250  0.24891250  1.0
  Cl  Cl1725  1  0.81358750  0.99891250  0.49891250  1.0
  Cl  Cl1726  1  0.81358750  0.99891250  0.74891250  1.0
  Cl  Cl1727  1  0.81358750  0.99891250  0.99891250  1.0
  Cl  Cl1728  1  0.18641250  0.18641250  0.18641250  1.0
  Cl  Cl1729  1  0.18641250  0.18641250  0.43641250  1.0
  Cl  Cl1730  1  0.18641250  0.18641250  0.68641250  1.0
  Cl  Cl1731  1  0.18641250  0.18641250  0.93641250  1.0
  Cl  Cl1732  1  0.18641250  0.43641250  0.18641250  1.0
  Cl  Cl1733  1  0.18641250  0.43641250  0.43641250  1.0
  Cl  Cl1734  1  0.18641250  0.43641250  0.68641250  1.0
  Cl  Cl1735  1  0.18641250  0.43641250  0.93641250  1.0
  Cl  Cl1736  1  0.18641250  0.68641250  0.18641250  1.0
  Cl  Cl1737  1  0.18641250  0.68641250  0.43641250  1.0
  Cl  Cl1738  1  0.18641250  0.68641250  0.68641250  1.0
  Cl  Cl1739  1  0.18641250  0.68641250  0.93641250  1.0
  Cl  Cl1740  1  0.18641250  0.93641250  0.18641250  1.0
  Cl  Cl1741  1  0.18641250  0.93641250  0.43641250  1.0
  Cl  Cl1742  1  0.18641250  0.93641250  0.68641250  1.0
  Cl  Cl1743  1  0.18641250  0.93641250  0.93641250  1.0
  Cl  Cl1744  1  0.43641250  0.18641250  0.18641250  1.0
  Cl  Cl1745  1  0.43641250  0.18641250  0.43641250  1.0
  Cl  Cl1746  1  0.43641250  0.18641250  0.68641250  1.0
  Cl  Cl1747  1  0.43641250  0.18641250  0.93641250  1.0
  Cl  Cl1748  1  0.43641250  0.43641250  0.18641250  1.0
  Cl  Cl1749  1  0.43641250  0.43641250  0.43641250  1.0
  Cl  Cl1750  1  0.43641250  0.43641250  0.68641250  1.0
  Cl  Cl1751  1  0.43641250  0.43641250  0.93641250  1.0
  Cl  Cl1752  1  0.43641250  0.68641250  0.18641250  1.0
  Cl  Cl1753  1  0.43641250  0.68641250  0.43641250  1.0
  Cl  Cl1754  1  0.43641250  0.68641250  0.68641250  1.0
  Cl  Cl1755  1  0.43641250  0.68641250  0.93641250  1.0
  Cl  Cl1756  1  0.43641250  0.93641250  0.18641250  1.0
  Cl  Cl1757  1  0.43641250  0.93641250  0.43641250  1.0
  Cl  Cl1758  1  0.43641250  0.93641250  0.68641250  1.0
  Cl  Cl1759  1  0.43641250  0.93641250  0.93641250  1.0
  Cl  Cl1760  1  0.68641250  0.18641250  0.18641250  1.0
  Cl  Cl1761  1  0.68641250  0.18641250  0.43641250  1.0
  Cl  Cl1762  1  0.68641250  0.18641250  0.68641250  1.0
  Cl  Cl1763  1  0.68641250  0.18641250  0.93641250  1.0
  Cl  Cl1764  1  0.68641250  0.43641250  0.18641250  1.0
  Cl  Cl1765  1  0.68641250  0.43641250  0.43641250  1.0
  Cl  Cl1766  1  0.68641250  0.43641250  0.68641250  1.0
  Cl  Cl1767  1  0.68641250  0.43641250  0.93641250  1.0
  Cl  Cl1768  1  0.68641250  0.68641250  0.18641250  1.0
  Cl  Cl1769  1  0.68641250  0.68641250  0.43641250  1.0
  Cl  Cl1770  1  0.68641250  0.68641250  0.68641250  1.0
  Cl  Cl1771  1  0.68641250  0.68641250  0.93641250  1.0
  Cl  Cl1772  1  0.68641250  0.93641250  0.18641250  1.0
  Cl  Cl1773  1  0.68641250  0.93641250  0.43641250  1.0
  Cl  Cl1774  1  0.68641250  0.93641250  0.68641250  1.0
  Cl  Cl1775  1  0.68641250  0.93641250  0.93641250  1.0
  Cl  Cl1776  1  0.93641250  0.18641250  0.18641250  1.0
  Cl  Cl1777  1  0.93641250  0.18641250  0.43641250  1.0
  Cl  Cl1778  1  0.93641250  0.18641250  0.68641250  1.0
  Cl  Cl1779  1  0.93641250  0.18641250  0.93641250  1.0
  Cl  Cl1780  1  0.93641250  0.43641250  0.18641250  1.0
  Cl  Cl1781  1  0.93641250  0.43641250  0.43641250  1.0
  Cl  Cl1782  1  0.93641250  0.43641250  0.68641250  1.0
  Cl  Cl1783  1  0.93641250  0.43641250  0.93641250  1.0
  Cl  Cl1784  1  0.93641250  0.68641250  0.18641250  1.0
  Cl  Cl1785  1  0.93641250  0.68641250  0.43641250  1.0
  Cl  Cl1786  1  0.93641250  0.68641250  0.68641250  1.0
  Cl  Cl1787  1  0.93641250  0.68641250  0.93641250  1.0
  Cl  Cl1788  1  0.93641250  0.93641250  0.18641250  1.0
  Cl  Cl1789  1  0.93641250  0.93641250  0.43641250  1.0
  Cl  Cl1790  1  0.93641250  0.93641250  0.68641250  1.0
  Cl  Cl1791  1  0.93641250  0.93641250  0.93641250  1.0
  Cl  Cl1792  1  0.12391250  0.06358750  0.12391250  1.0
  Cl  Cl1793  1  0.12391250  0.06358750  0.37391250  1.0
  Cl  Cl1794  1  0.12391250  0.06358750  0.62391250  1.0
  Cl  Cl1795  1  0.12391250  0.06358750  0.87391250  1.0
  Cl  Cl1796  1  0.12391250  0.31358750  0.12391250  1.0
  Cl  Cl1797  1  0.12391250  0.31358750  0.37391250  1.0
  Cl  Cl1798  1  0.12391250  0.31358750  0.62391250  1.0
  Cl  Cl1799  1  0.12391250  0.31358750  0.87391250  1.0
  Cl  Cl1800  1  0.12391250  0.56358750  0.12391250  1.0
  Cl  Cl1801  1  0.12391250  0.56358750  0.37391250  1.0
  Cl  Cl1802  1  0.12391250  0.56358750  0.62391250  1.0
  Cl  Cl1803  1  0.12391250  0.56358750  0.87391250  1.0
  Cl  Cl1804  1  0.12391250  0.81358750  0.12391250  1.0
  Cl  Cl1805  1  0.12391250  0.81358750  0.37391250  1.0
  Cl  Cl1806  1  0.12391250  0.81358750  0.62391250  1.0
  Cl  Cl1807  1  0.12391250  0.81358750  0.87391250  1.0
  Cl  Cl1808  1  0.37391250  0.06358750  0.12391250  1.0
  Cl  Cl1809  1  0.37391250  0.06358750  0.37391250  1.0
  Cl  Cl1810  1  0.37391250  0.06358750  0.62391250  1.0
  Cl  Cl1811  1  0.37391250  0.06358750  0.87391250  1.0
  Cl  Cl1812  1  0.37391250  0.31358750  0.12391250  1.0
  Cl  Cl1813  1  0.37391250  0.31358750  0.37391250  1.0
  Cl  Cl1814  1  0.37391250  0.31358750  0.62391250  1.0
  Cl  Cl1815  1  0.37391250  0.31358750  0.87391250  1.0
  Cl  Cl1816  1  0.37391250  0.56358750  0.12391250  1.0
  Cl  Cl1817  1  0.37391250  0.56358750  0.37391250  1.0
  Cl  Cl1818  1  0.37391250  0.56358750  0.62391250  1.0
  Cl  Cl1819  1  0.37391250  0.56358750  0.87391250  1.0
  Cl  Cl1820  1  0.37391250  0.81358750  0.12391250  1.0
  Cl  Cl1821  1  0.37391250  0.81358750  0.37391250  1.0
  Cl  Cl1822  1  0.37391250  0.81358750  0.62391250  1.0
  Cl  Cl1823  1  0.37391250  0.81358750  0.87391250  1.0
  Cl  Cl1824  1  0.62391250  0.06358750  0.12391250  1.0
  Cl  Cl1825  1  0.62391250  0.06358750  0.37391250  1.0
  Cl  Cl1826  1  0.62391250  0.06358750  0.62391250  1.0
  Cl  Cl1827  1  0.62391250  0.06358750  0.87391250  1.0
  Cl  Cl1828  1  0.62391250  0.31358750  0.12391250  1.0
  Cl  Cl1829  1  0.62391250  0.31358750  0.37391250  1.0
  Cl  Cl1830  1  0.62391250  0.31358750  0.62391250  1.0
  Cl  Cl1831  1  0.62391250  0.31358750  0.87391250  1.0
  Cl  Cl1832  1  0.62391250  0.56358750  0.12391250  1.0
  Cl  Cl1833  1  0.62391250  0.56358750  0.37391250  1.0
  Cl  Cl1834  1  0.62391250  0.56358750  0.62391250  1.0
  Cl  Cl1835  1  0.62391250  0.56358750  0.87391250  1.0
  Cl  Cl1836  1  0.62391250  0.81358750  0.12391250  1.0
  Cl  Cl1837  1  0.62391250  0.81358750  0.37391250  1.0
  Cl  Cl1838  1  0.62391250  0.81358750  0.62391250  1.0
  Cl  Cl1839  1  0.62391250  0.81358750  0.87391250  1.0
  Cl  Cl1840  1  0.87391250  0.06358750  0.12391250  1.0
  Cl  Cl1841  1  0.87391250  0.06358750  0.37391250  1.0
  Cl  Cl1842  1  0.87391250  0.06358750  0.62391250  1.0
  Cl  Cl1843  1  0.87391250  0.06358750  0.87391250  1.0
  Cl  Cl1844  1  0.87391250  0.31358750  0.12391250  1.0
  Cl  Cl1845  1  0.87391250  0.31358750  0.37391250  1.0
  Cl  Cl1846  1  0.87391250  0.31358750  0.62391250  1.0
  Cl  Cl1847  1  0.87391250  0.31358750  0.87391250  1.0
  Cl  Cl1848  1  0.87391250  0.56358750  0.12391250  1.0
  Cl  Cl1849  1  0.87391250  0.56358750  0.37391250  1.0
  Cl  Cl1850  1  0.87391250  0.56358750  0.62391250  1.0
  Cl  Cl1851  1  0.87391250  0.56358750  0.87391250  1.0
  Cl  Cl1852  1  0.87391250  0.81358750  0.12391250  1.0
  Cl  Cl1853  1  0.87391250  0.81358750  0.37391250  1.0
  Cl  Cl1854  1  0.87391250  0.81358750  0.62391250  1.0
  Cl  Cl1855  1  0.87391250  0.81358750  0.87391250  1.0
  Cl  Cl1856  1  0.00108750  0.12608750  0.06141250  1.0
  Cl  Cl1857  1  0.00108750  0.12608750  0.31141250  1.0
  Cl  Cl1858  1  0.00108750  0.12608750  0.56141250  1.0
  Cl  Cl1859  1  0.00108750  0.12608750  0.81141250  1.0
  Cl  Cl1860  1  0.00108750  0.37608750  0.06141250  1.0
  Cl  Cl1861  1  0.00108750  0.37608750  0.31141250  1.0
  Cl  Cl1862  1  0.00108750  0.37608750  0.56141250  1.0
  Cl  Cl1863  1  0.00108750  0.37608750  0.81141250  1.0
  Cl  Cl1864  1  0.00108750  0.62608750  0.06141250  1.0
  Cl  Cl1865  1  0.00108750  0.62608750  0.31141250  1.0
  Cl  Cl1866  1  0.00108750  0.62608750  0.56141250  1.0
  Cl  Cl1867  1  0.00108750  0.62608750  0.81141250  1.0
  Cl  Cl1868  1  0.00108750  0.87608750  0.06141250  1.0
  Cl  Cl1869  1  0.00108750  0.87608750  0.31141250  1.0
  Cl  Cl1870  1  0.00108750  0.87608750  0.56141250  1.0
  Cl  Cl1871  1  0.00108750  0.87608750  0.81141250  1.0
  Cl  Cl1872  1  0.25108750  0.12608750  0.06141250  1.0
  Cl  Cl1873  1  0.25108750  0.12608750  0.31141250  1.0
  Cl  Cl1874  1  0.25108750  0.12608750  0.56141250  1.0
  Cl  Cl1875  1  0.25108750  0.12608750  0.81141250  1.0
  Cl  Cl1876  1  0.25108750  0.37608750  0.06141250  1.0
  Cl  Cl1877  1  0.25108750  0.37608750  0.31141250  1.0
  Cl  Cl1878  1  0.25108750  0.37608750  0.56141250  1.0
  Cl  Cl1879  1  0.25108750  0.37608750  0.81141250  1.0
  Cl  Cl1880  1  0.25108750  0.62608750  0.06141250  1.0
  Cl  Cl1881  1  0.25108750  0.62608750  0.31141250  1.0
  Cl  Cl1882  1  0.25108750  0.62608750  0.56141250  1.0
  Cl  Cl1883  1  0.25108750  0.62608750  0.81141250  1.0
  Cl  Cl1884  1  0.25108750  0.87608750  0.06141250  1.0
  Cl  Cl1885  1  0.25108750  0.87608750  0.31141250  1.0
  Cl  Cl1886  1  0.25108750  0.87608750  0.56141250  1.0
  Cl  Cl1887  1  0.25108750  0.87608750  0.81141250  1.0
  Cl  Cl1888  1  0.50108750  0.12608750  0.06141250  1.0
  Cl  Cl1889  1  0.50108750  0.12608750  0.31141250  1.0
  Cl  Cl1890  1  0.50108750  0.12608750  0.56141250  1.0
  Cl  Cl1891  1  0.50108750  0.12608750  0.81141250  1.0
  Cl  Cl1892  1  0.50108750  0.37608750  0.06141250  1.0
  Cl  Cl1893  1  0.50108750  0.37608750  0.31141250  1.0
  Cl  Cl1894  1  0.50108750  0.37608750  0.56141250  1.0
  Cl  Cl1895  1  0.50108750  0.37608750  0.81141250  1.0
  Cl  Cl1896  1  0.50108750  0.62608750  0.06141250  1.0
  Cl  Cl1897  1  0.50108750  0.62608750  0.31141250  1.0
  Cl  Cl1898  1  0.50108750  0.62608750  0.56141250  1.0
  Cl  Cl1899  1  0.50108750  0.62608750  0.81141250  1.0
  Cl  Cl1900  1  0.50108750  0.87608750  0.06141250  1.0
  Cl  Cl1901  1  0.50108750  0.87608750  0.31141250  1.0
  Cl  Cl1902  1  0.50108750  0.87608750  0.56141250  1.0
  Cl  Cl1903  1  0.50108750  0.87608750  0.81141250  1.0
  Cl  Cl1904  1  0.75108750  0.12608750  0.06141250  1.0
  Cl  Cl1905  1  0.75108750  0.12608750  0.31141250  1.0
  Cl  Cl1906  1  0.75108750  0.12608750  0.56141250  1.0
  Cl  Cl1907  1  0.75108750  0.12608750  0.81141250  1.0
  Cl  Cl1908  1  0.75108750  0.37608750  0.06141250  1.0
  Cl  Cl1909  1  0.75108750  0.37608750  0.31141250  1.0
  Cl  Cl1910  1  0.75108750  0.37608750  0.56141250  1.0
  Cl  Cl1911  1  0.75108750  0.37608750  0.81141250  1.0
  Cl  Cl1912  1  0.75108750  0.62608750  0.06141250  1.0
  Cl  Cl1913  1  0.75108750  0.62608750  0.31141250  1.0
  Cl  Cl1914  1  0.75108750  0.62608750  0.56141250  1.0
  Cl  Cl1915  1  0.75108750  0.62608750  0.81141250  1.0
  Cl  Cl1916  1  0.75108750  0.87608750  0.06141250  1.0
  Cl  Cl1917  1  0.75108750  0.87608750  0.31141250  1.0
  Cl  Cl1918  1  0.75108750  0.87608750  0.56141250  1.0
  Cl  Cl1919  1  0.75108750  0.87608750  0.81141250  1.0
  Cl  Cl1920  1  0.12608750  0.18641250  0.12608750  1.0
  Cl  Cl1921  1  0.12608750  0.18641250  0.37608750  1.0
  Cl  Cl1922  1  0.12608750  0.18641250  0.62608750  1.0
  Cl  Cl1923  1  0.12608750  0.18641250  0.87608750  1.0
  Cl  Cl1924  1  0.12608750  0.43641250  0.12608750  1.0
  Cl  Cl1925  1  0.12608750  0.43641250  0.37608750  1.0
  Cl  Cl1926  1  0.12608750  0.43641250  0.62608750  1.0
  Cl  Cl1927  1  0.12608750  0.43641250  0.87608750  1.0
  Cl  Cl1928  1  0.12608750  0.68641250  0.12608750  1.0
  Cl  Cl1929  1  0.12608750  0.68641250  0.37608750  1.0
  Cl  Cl1930  1  0.12608750  0.68641250  0.62608750  1.0
  Cl  Cl1931  1  0.12608750  0.68641250  0.87608750  1.0
  Cl  Cl1932  1  0.12608750  0.93641250  0.12608750  1.0
  Cl  Cl1933  1  0.12608750  0.93641250  0.37608750  1.0
  Cl  Cl1934  1  0.12608750  0.93641250  0.62608750  1.0
  Cl  Cl1935  1  0.12608750  0.93641250  0.87608750  1.0
  Cl  Cl1936  1  0.37608750  0.18641250  0.12608750  1.0
  Cl  Cl1937  1  0.37608750  0.18641250  0.37608750  1.0
  Cl  Cl1938  1  0.37608750  0.18641250  0.62608750  1.0
  Cl  Cl1939  1  0.37608750  0.18641250  0.87608750  1.0
  Cl  Cl1940  1  0.37608750  0.43641250  0.12608750  1.0
  Cl  Cl1941  1  0.37608750  0.43641250  0.37608750  1.0
  Cl  Cl1942  1  0.37608750  0.43641250  0.62608750  1.0
  Cl  Cl1943  1  0.37608750  0.43641250  0.87608750  1.0
  Cl  Cl1944  1  0.37608750  0.68641250  0.12608750  1.0
  Cl  Cl1945  1  0.37608750  0.68641250  0.37608750  1.0
  Cl  Cl1946  1  0.37608750  0.68641250  0.62608750  1.0
  Cl  Cl1947  1  0.37608750  0.68641250  0.87608750  1.0
  Cl  Cl1948  1  0.37608750  0.93641250  0.12608750  1.0
  Cl  Cl1949  1  0.37608750  0.93641250  0.37608750  1.0
  Cl  Cl1950  1  0.37608750  0.93641250  0.62608750  1.0
  Cl  Cl1951  1  0.37608750  0.93641250  0.87608750  1.0
  Cl  Cl1952  1  0.62608750  0.18641250  0.12608750  1.0
  Cl  Cl1953  1  0.62608750  0.18641250  0.37608750  1.0
  Cl  Cl1954  1  0.62608750  0.18641250  0.62608750  1.0
  Cl  Cl1955  1  0.62608750  0.18641250  0.87608750  1.0
  Cl  Cl1956  1  0.62608750  0.43641250  0.12608750  1.0
  Cl  Cl1957  1  0.62608750  0.43641250  0.37608750  1.0
  Cl  Cl1958  1  0.62608750  0.43641250  0.62608750  1.0
  Cl  Cl1959  1  0.62608750  0.43641250  0.87608750  1.0
  Cl  Cl1960  1  0.62608750  0.68641250  0.12608750  1.0
  Cl  Cl1961  1  0.62608750  0.68641250  0.37608750  1.0
  Cl  Cl1962  1  0.62608750  0.68641250  0.62608750  1.0
  Cl  Cl1963  1  0.62608750  0.68641250  0.87608750  1.0
  Cl  Cl1964  1  0.62608750  0.93641250  0.12608750  1.0
  Cl  Cl1965  1  0.62608750  0.93641250  0.37608750  1.0
  Cl  Cl1966  1  0.62608750  0.93641250  0.62608750  1.0
  Cl  Cl1967  1  0.62608750  0.93641250  0.87608750  1.0
  Cl  Cl1968  1  0.87608750  0.18641250  0.12608750  1.0
  Cl  Cl1969  1  0.87608750  0.18641250  0.37608750  1.0
  Cl  Cl1970  1  0.87608750  0.18641250  0.62608750  1.0
  Cl  Cl1971  1  0.87608750  0.18641250  0.87608750  1.0
  Cl  Cl1972  1  0.87608750  0.43641250  0.12608750  1.0
  Cl  Cl1973  1  0.87608750  0.43641250  0.37608750  1.0
  Cl  Cl1974  1  0.87608750  0.43641250  0.62608750  1.0
  Cl  Cl1975  1  0.87608750  0.43641250  0.87608750  1.0
  Cl  Cl1976  1  0.87608750  0.68641250  0.12608750  1.0
  Cl  Cl1977  1  0.87608750  0.68641250  0.37608750  1.0
  Cl  Cl1978  1  0.87608750  0.68641250  0.62608750  1.0
  Cl  Cl1979  1  0.87608750  0.68641250  0.87608750  1.0
  Cl  Cl1980  1  0.87608750  0.93641250  0.12608750  1.0
  Cl  Cl1981  1  0.87608750  0.93641250  0.37608750  1.0
  Cl  Cl1982  1  0.87608750  0.93641250  0.62608750  1.0
  Cl  Cl1983  1  0.87608750  0.93641250  0.87608750  1.0
  Cl  Cl1984  1  0.18858750  0.12391250  0.24891250  1.0
  Cl  Cl1985  1  0.18858750  0.12391250  0.49891250  1.0
  Cl  Cl1986  1  0.18858750  0.12391250  0.74891250  1.0
  Cl  Cl1987  1  0.18858750  0.12391250  0.99891250  1.0
  Cl  Cl1988  1  0.18858750  0.37391250  0.24891250  1.0
  Cl  Cl1989  1  0.18858750  0.37391250  0.49891250  1.0
  Cl  Cl1990  1  0.18858750  0.37391250  0.74891250  1.0
  Cl  Cl1991  1  0.18858750  0.37391250  0.99891250  1.0
  Cl  Cl1992  1  0.18858750  0.62391250  0.24891250  1.0
  Cl  Cl1993  1  0.18858750  0.62391250  0.49891250  1.0
  Cl  Cl1994  1  0.18858750  0.62391250  0.74891250  1.0
  Cl  Cl1995  1  0.18858750  0.62391250  0.99891250  1.0
  Cl  Cl1996  1  0.18858750  0.87391250  0.24891250  1.0
  Cl  Cl1997  1  0.18858750  0.87391250  0.49891250  1.0
  Cl  Cl1998  1  0.18858750  0.87391250  0.74891250  1.0
  Cl  Cl1999  1  0.18858750  0.87391250  0.99891250  1.0
  Cl  Cl2000  1  0.43858750  0.12391250  0.24891250  1.0
  Cl  Cl2001  1  0.43858750  0.12391250  0.49891250  1.0
  Cl  Cl2002  1  0.43858750  0.12391250  0.74891250  1.0
  Cl  Cl2003  1  0.43858750  0.12391250  0.99891250  1.0
  Cl  Cl2004  1  0.43858750  0.37391250  0.24891250  1.0
  Cl  Cl2005  1  0.43858750  0.37391250  0.49891250  1.0
  Cl  Cl2006  1  0.43858750  0.37391250  0.74891250  1.0
  Cl  Cl2007  1  0.43858750  0.37391250  0.99891250  1.0
  Cl  Cl2008  1  0.43858750  0.62391250  0.24891250  1.0
  Cl  Cl2009  1  0.43858750  0.62391250  0.49891250  1.0
  Cl  Cl2010  1  0.43858750  0.62391250  0.74891250  1.0
  Cl  Cl2011  1  0.43858750  0.62391250  0.99891250  1.0
  Cl  Cl2012  1  0.43858750  0.87391250  0.24891250  1.0
  Cl  Cl2013  1  0.43858750  0.87391250  0.49891250  1.0
  Cl  Cl2014  1  0.43858750  0.87391250  0.74891250  1.0
  Cl  Cl2015  1  0.43858750  0.87391250  0.99891250  1.0
  Cl  Cl2016  1  0.68858750  0.12391250  0.24891250  1.0
  Cl  Cl2017  1  0.68858750  0.12391250  0.49891250  1.0
  Cl  Cl2018  1  0.68858750  0.12391250  0.74891250  1.0
  Cl  Cl2019  1  0.68858750  0.12391250  0.99891250  1.0
  Cl  Cl2020  1  0.68858750  0.37391250  0.24891250  1.0
  Cl  Cl2021  1  0.68858750  0.37391250  0.49891250  1.0
  Cl  Cl2022  1  0.68858750  0.37391250  0.74891250  1.0
  Cl  Cl2023  1  0.68858750  0.37391250  0.99891250  1.0
  Cl  Cl2024  1  0.68858750  0.62391250  0.24891250  1.0
  Cl  Cl2025  1  0.68858750  0.62391250  0.49891250  1.0
  Cl  Cl2026  1  0.68858750  0.62391250  0.74891250  1.0
  Cl  Cl2027  1  0.68858750  0.62391250  0.99891250  1.0
  Cl  Cl2028  1  0.68858750  0.87391250  0.24891250  1.0
  Cl  Cl2029  1  0.68858750  0.87391250  0.49891250  1.0
  Cl  Cl2030  1  0.68858750  0.87391250  0.74891250  1.0
  Cl  Cl2031  1  0.68858750  0.87391250  0.99891250  1.0
  Cl  Cl2032  1  0.93858750  0.12391250  0.24891250  1.0
  Cl  Cl2033  1  0.93858750  0.12391250  0.49891250  1.0
  Cl  Cl2034  1  0.93858750  0.12391250  0.74891250  1.0
  Cl  Cl2035  1  0.93858750  0.12391250  0.99891250  1.0
  Cl  Cl2036  1  0.93858750  0.37391250  0.24891250  1.0
  Cl  Cl2037  1  0.93858750  0.37391250  0.49891250  1.0
  Cl  Cl2038  1  0.93858750  0.37391250  0.74891250  1.0
  Cl  Cl2039  1  0.93858750  0.37391250  0.99891250  1.0
  Cl  Cl2040  1  0.93858750  0.62391250  0.24891250  1.0
  Cl  Cl2041  1  0.93858750  0.62391250  0.49891250  1.0
  Cl  Cl2042  1  0.93858750  0.62391250  0.74891250  1.0
  Cl  Cl2043  1  0.93858750  0.62391250  0.99891250  1.0
  Cl  Cl2044  1  0.93858750  0.87391250  0.24891250  1.0
  Cl  Cl2045  1  0.93858750  0.87391250  0.49891250  1.0
  Cl  Cl2046  1  0.93858750  0.87391250  0.74891250  1.0
  Cl  Cl2047  1  0.93858750  0.87391250  0.99891250  1.0
  Cl  Cl2048  1  0.00108750  0.00108750  0.18641250  1.0
  Cl  Cl2049  1  0.00108750  0.00108750  0.43641250  1.0
  Cl  Cl2050  1  0.00108750  0.00108750  0.68641250  1.0
  Cl  Cl2051  1  0.00108750  0.00108750  0.93641250  1.0
  Cl  Cl2052  1  0.00108750  0.25108750  0.18641250  1.0
  Cl  Cl2053  1  0.00108750  0.25108750  0.43641250  1.0
  Cl  Cl2054  1  0.00108750  0.25108750  0.68641250  1.0
  Cl  Cl2055  1  0.00108750  0.25108750  0.93641250  1.0
  Cl  Cl2056  1  0.00108750  0.50108750  0.18641250  1.0
  Cl  Cl2057  1  0.00108750  0.50108750  0.43641250  1.0
  Cl  Cl2058  1  0.00108750  0.50108750  0.68641250  1.0
  Cl  Cl2059  1  0.00108750  0.50108750  0.93641250  1.0
  Cl  Cl2060  1  0.00108750  0.75108750  0.18641250  1.0
  Cl  Cl2061  1  0.00108750  0.75108750  0.43641250  1.0
  Cl  Cl2062  1  0.00108750  0.75108750  0.68641250  1.0
  Cl  Cl2063  1  0.00108750  0.75108750  0.93641250  1.0
  Cl  Cl2064  1  0.25108750  0.00108750  0.18641250  1.0
  Cl  Cl2065  1  0.25108750  0.00108750  0.43641250  1.0
  Cl  Cl2066  1  0.25108750  0.00108750  0.68641250  1.0
  Cl  Cl2067  1  0.25108750  0.00108750  0.93641250  1.0
  Cl  Cl2068  1  0.25108750  0.25108750  0.18641250  1.0
  Cl  Cl2069  1  0.25108750  0.25108750  0.43641250  1.0
  Cl  Cl2070  1  0.25108750  0.25108750  0.68641250  1.0
  Cl  Cl2071  1  0.25108750  0.25108750  0.93641250  1.0
  Cl  Cl2072  1  0.25108750  0.50108750  0.18641250  1.0
  Cl  Cl2073  1  0.25108750  0.50108750  0.43641250  1.0
  Cl  Cl2074  1  0.25108750  0.50108750  0.68641250  1.0
  Cl  Cl2075  1  0.25108750  0.50108750  0.93641250  1.0
  Cl  Cl2076  1  0.25108750  0.75108750  0.18641250  1.0
  Cl  Cl2077  1  0.25108750  0.75108750  0.43641250  1.0
  Cl  Cl2078  1  0.25108750  0.75108750  0.68641250  1.0
  Cl  Cl2079  1  0.25108750  0.75108750  0.93641250  1.0
  Cl  Cl2080  1  0.50108750  0.00108750  0.18641250  1.0
  Cl  Cl2081  1  0.50108750  0.00108750  0.43641250  1.0
  Cl  Cl2082  1  0.50108750  0.00108750  0.68641250  1.0
  Cl  Cl2083  1  0.50108750  0.00108750  0.93641250  1.0
  Cl  Cl2084  1  0.50108750  0.25108750  0.18641250  1.0
  Cl  Cl2085  1  0.50108750  0.25108750  0.43641250  1.0
  Cl  Cl2086  1  0.50108750  0.25108750  0.68641250  1.0
  Cl  Cl2087  1  0.50108750  0.25108750  0.93641250  1.0
  Cl  Cl2088  1  0.50108750  0.50108750  0.18641250  1.0
  Cl  Cl2089  1  0.50108750  0.50108750  0.43641250  1.0
  Cl  Cl2090  1  0.50108750  0.50108750  0.68641250  1.0
  Cl  Cl2091  1  0.50108750  0.50108750  0.93641250  1.0
  Cl  Cl2092  1  0.50108750  0.75108750  0.18641250  1.0
  Cl  Cl2093  1  0.50108750  0.75108750  0.43641250  1.0
  Cl  Cl2094  1  0.50108750  0.75108750  0.68641250  1.0
  Cl  Cl2095  1  0.50108750  0.75108750  0.93641250  1.0
  Cl  Cl2096  1  0.75108750  0.00108750  0.18641250  1.0
  Cl  Cl2097  1  0.75108750  0.00108750  0.43641250  1.0
  Cl  Cl2098  1  0.75108750  0.00108750  0.68641250  1.0
  Cl  Cl2099  1  0.75108750  0.00108750  0.93641250  1.0
  Cl  Cl2100  1  0.75108750  0.25108750  0.18641250  1.0
  Cl  Cl2101  1  0.75108750  0.25108750  0.43641250  1.0
  Cl  Cl2102  1  0.75108750  0.25108750  0.68641250  1.0
  Cl  Cl2103  1  0.75108750  0.25108750  0.93641250  1.0
  Cl  Cl2104  1  0.75108750  0.50108750  0.18641250  1.0
  Cl  Cl2105  1  0.75108750  0.50108750  0.43641250  1.0
  Cl  Cl2106  1  0.75108750  0.50108750  0.68641250  1.0
  Cl  Cl2107  1  0.75108750  0.50108750  0.93641250  1.0
  Cl  Cl2108  1  0.75108750  0.75108750  0.18641250  1.0
  Cl  Cl2109  1  0.75108750  0.75108750  0.43641250  1.0
  Cl  Cl2110  1  0.75108750  0.75108750  0.68641250  1.0
  Cl  Cl2111  1  0.75108750  0.75108750  0.93641250  1.0
  Cl  Cl2112  1  0.24891250  0.06358750  0.24891250  1.0
  Cl  Cl2113  1  0.24891250  0.06358750  0.49891250  1.0
  Cl  Cl2114  1  0.24891250  0.06358750  0.74891250  1.0
  Cl  Cl2115  1  0.24891250  0.06358750  0.99891250  1.0
  Cl  Cl2116  1  0.24891250  0.31358750  0.24891250  1.0
  Cl  Cl2117  1  0.24891250  0.31358750  0.49891250  1.0
  Cl  Cl2118  1  0.24891250  0.31358750  0.74891250  1.0
  Cl  Cl2119  1  0.24891250  0.31358750  0.99891250  1.0
  Cl  Cl2120  1  0.24891250  0.56358750  0.24891250  1.0
  Cl  Cl2121  1  0.24891250  0.56358750  0.49891250  1.0
  Cl  Cl2122  1  0.24891250  0.56358750  0.74891250  1.0
  Cl  Cl2123  1  0.24891250  0.56358750  0.99891250  1.0
  Cl  Cl2124  1  0.24891250  0.81358750  0.24891250  1.0
  Cl  Cl2125  1  0.24891250  0.81358750  0.49891250  1.0
  Cl  Cl2126  1  0.24891250  0.81358750  0.74891250  1.0
  Cl  Cl2127  1  0.24891250  0.81358750  0.99891250  1.0
  Cl  Cl2128  1  0.49891250  0.06358750  0.24891250  1.0
  Cl  Cl2129  1  0.49891250  0.06358750  0.49891250  1.0
  Cl  Cl2130  1  0.49891250  0.06358750  0.74891250  1.0
  Cl  Cl2131  1  0.49891250  0.06358750  0.99891250  1.0
  Cl  Cl2132  1  0.49891250  0.31358750  0.24891250  1.0
  Cl  Cl2133  1  0.49891250  0.31358750  0.49891250  1.0
  Cl  Cl2134  1  0.49891250  0.31358750  0.74891250  1.0
  Cl  Cl2135  1  0.49891250  0.31358750  0.99891250  1.0
  Cl  Cl2136  1  0.49891250  0.56358750  0.24891250  1.0
  Cl  Cl2137  1  0.49891250  0.56358750  0.49891250  1.0
  Cl  Cl2138  1  0.49891250  0.56358750  0.74891250  1.0
  Cl  Cl2139  1  0.49891250  0.56358750  0.99891250  1.0
  Cl  Cl2140  1  0.49891250  0.81358750  0.24891250  1.0
  Cl  Cl2141  1  0.49891250  0.81358750  0.49891250  1.0
  Cl  Cl2142  1  0.49891250  0.81358750  0.74891250  1.0
  Cl  Cl2143  1  0.49891250  0.81358750  0.99891250  1.0
  Cl  Cl2144  1  0.74891250  0.06358750  0.24891250  1.0
  Cl  Cl2145  1  0.74891250  0.06358750  0.49891250  1.0
  Cl  Cl2146  1  0.74891250  0.06358750  0.74891250  1.0
  Cl  Cl2147  1  0.74891250  0.06358750  0.99891250  1.0
  Cl  Cl2148  1  0.74891250  0.31358750  0.24891250  1.0
  Cl  Cl2149  1  0.74891250  0.31358750  0.49891250  1.0
  Cl  Cl2150  1  0.74891250  0.31358750  0.74891250  1.0
  Cl  Cl2151  1  0.74891250  0.31358750  0.99891250  1.0
  Cl  Cl2152  1  0.74891250  0.56358750  0.24891250  1.0
  Cl  Cl2153  1  0.74891250  0.56358750  0.49891250  1.0
  Cl  Cl2154  1  0.74891250  0.56358750  0.74891250  1.0
  Cl  Cl2155  1  0.74891250  0.56358750  0.99891250  1.0
  Cl  Cl2156  1  0.74891250  0.81358750  0.24891250  1.0
  Cl  Cl2157  1  0.74891250  0.81358750  0.49891250  1.0
  Cl  Cl2158  1  0.74891250  0.81358750  0.74891250  1.0
  Cl  Cl2159  1  0.74891250  0.81358750  0.99891250  1.0
  Cl  Cl2160  1  0.99891250  0.06358750  0.24891250  1.0
  Cl  Cl2161  1  0.99891250  0.06358750  0.49891250  1.0
  Cl  Cl2162  1  0.99891250  0.06358750  0.74891250  1.0
  Cl  Cl2163  1  0.99891250  0.06358750  0.99891250  1.0
  Cl  Cl2164  1  0.99891250  0.31358750  0.24891250  1.0
  Cl  Cl2165  1  0.99891250  0.31358750  0.49891250  1.0
  Cl  Cl2166  1  0.99891250  0.31358750  0.74891250  1.0
  Cl  Cl2167  1  0.99891250  0.31358750  0.99891250  1.0
  Cl  Cl2168  1  0.99891250  0.56358750  0.24891250  1.0
  Cl  Cl2169  1  0.99891250  0.56358750  0.49891250  1.0
  Cl  Cl2170  1  0.99891250  0.56358750  0.74891250  1.0
  Cl  Cl2171  1  0.99891250  0.56358750  0.99891250  1.0
  Cl  Cl2172  1  0.99891250  0.81358750  0.24891250  1.0
  Cl  Cl2173  1  0.99891250  0.81358750  0.49891250  1.0
  Cl  Cl2174  1  0.99891250  0.81358750  0.74891250  1.0
  Cl  Cl2175  1  0.99891250  0.81358750  0.99891250  1.0
  Cl  Cl2176  1  0.12391250  0.12391250  0.06358750  1.0
  Cl  Cl2177  1  0.12391250  0.12391250  0.31358750  1.0
  Cl  Cl2178  1  0.12391250  0.12391250  0.56358750  1.0
  Cl  Cl2179  1  0.12391250  0.12391250  0.81358750  1.0
  Cl  Cl2180  1  0.12391250  0.37391250  0.06358750  1.0
  Cl  Cl2181  1  0.12391250  0.37391250  0.31358750  1.0
  Cl  Cl2182  1  0.12391250  0.37391250  0.56358750  1.0
  Cl  Cl2183  1  0.12391250  0.37391250  0.81358750  1.0
  Cl  Cl2184  1  0.12391250  0.62391250  0.06358750  1.0
  Cl  Cl2185  1  0.12391250  0.62391250  0.31358750  1.0
  Cl  Cl2186  1  0.12391250  0.62391250  0.56358750  1.0
  Cl  Cl2187  1  0.12391250  0.62391250  0.81358750  1.0
  Cl  Cl2188  1  0.12391250  0.87391250  0.06358750  1.0
  Cl  Cl2189  1  0.12391250  0.87391250  0.31358750  1.0
  Cl  Cl2190  1  0.12391250  0.87391250  0.56358750  1.0
  Cl  Cl2191  1  0.12391250  0.87391250  0.81358750  1.0
  Cl  Cl2192  1  0.37391250  0.12391250  0.06358750  1.0
  Cl  Cl2193  1  0.37391250  0.12391250  0.31358750  1.0
  Cl  Cl2194  1  0.37391250  0.12391250  0.56358750  1.0
  Cl  Cl2195  1  0.37391250  0.12391250  0.81358750  1.0
  Cl  Cl2196  1  0.37391250  0.37391250  0.06358750  1.0
  Cl  Cl2197  1  0.37391250  0.37391250  0.31358750  1.0
  Cl  Cl2198  1  0.37391250  0.37391250  0.56358750  1.0
  Cl  Cl2199  1  0.37391250  0.37391250  0.81358750  1.0
  Cl  Cl2200  1  0.37391250  0.62391250  0.06358750  1.0
  Cl  Cl2201  1  0.37391250  0.62391250  0.31358750  1.0
  Cl  Cl2202  1  0.37391250  0.62391250  0.56358750  1.0
  Cl  Cl2203  1  0.37391250  0.62391250  0.81358750  1.0
  Cl  Cl2204  1  0.37391250  0.87391250  0.06358750  1.0
  Cl  Cl2205  1  0.37391250  0.87391250  0.31358750  1.0
  Cl  Cl2206  1  0.37391250  0.87391250  0.56358750  1.0
  Cl  Cl2207  1  0.37391250  0.87391250  0.81358750  1.0
  Cl  Cl2208  1  0.62391250  0.12391250  0.06358750  1.0
  Cl  Cl2209  1  0.62391250  0.12391250  0.31358750  1.0
  Cl  Cl2210  1  0.62391250  0.12391250  0.56358750  1.0
  Cl  Cl2211  1  0.62391250  0.12391250  0.81358750  1.0
  Cl  Cl2212  1  0.62391250  0.37391250  0.06358750  1.0
  Cl  Cl2213  1  0.62391250  0.37391250  0.31358750  1.0
  Cl  Cl2214  1  0.62391250  0.37391250  0.56358750  1.0
  Cl  Cl2215  1  0.62391250  0.37391250  0.81358750  1.0
  Cl  Cl2216  1  0.62391250  0.62391250  0.06358750  1.0
  Cl  Cl2217  1  0.62391250  0.62391250  0.31358750  1.0
  Cl  Cl2218  1  0.62391250  0.62391250  0.56358750  1.0
  Cl  Cl2219  1  0.62391250  0.62391250  0.81358750  1.0
  Cl  Cl2220  1  0.62391250  0.87391250  0.06358750  1.0
  Cl  Cl2221  1  0.62391250  0.87391250  0.31358750  1.0
  Cl  Cl2222  1  0.62391250  0.87391250  0.56358750  1.0
  Cl  Cl2223  1  0.62391250  0.87391250  0.81358750  1.0
  Cl  Cl2224  1  0.87391250  0.12391250  0.06358750  1.0
  Cl  Cl2225  1  0.87391250  0.12391250  0.31358750  1.0
  Cl  Cl2226  1  0.87391250  0.12391250  0.56358750  1.0
  Cl  Cl2227  1  0.87391250  0.12391250  0.81358750  1.0
  Cl  Cl2228  1  0.87391250  0.37391250  0.06358750  1.0
  Cl  Cl2229  1  0.87391250  0.37391250  0.31358750  1.0
  Cl  Cl2230  1  0.87391250  0.37391250  0.56358750  1.0
  Cl  Cl2231  1  0.87391250  0.37391250  0.81358750  1.0
  Cl  Cl2232  1  0.87391250  0.62391250  0.06358750  1.0
  Cl  Cl2233  1  0.87391250  0.62391250  0.31358750  1.0
  Cl  Cl2234  1  0.87391250  0.62391250  0.56358750  1.0
  Cl  Cl2235  1  0.87391250  0.62391250  0.81358750  1.0
  Cl  Cl2236  1  0.87391250  0.87391250  0.06358750  1.0
  Cl  Cl2237  1  0.87391250  0.87391250  0.31358750  1.0
  Cl  Cl2238  1  0.87391250  0.87391250  0.56358750  1.0
  Cl  Cl2239  1  0.87391250  0.87391250  0.81358750  1.0
  Cl  Cl2240  1  0.06141250  0.00108750  0.12608750  1.0
  Cl  Cl2241  1  0.06141250  0.00108750  0.37608750  1.0
  Cl  Cl2242  1  0.06141250  0.00108750  0.62608750  1.0
  Cl  Cl2243  1  0.06141250  0.00108750  0.87608750  1.0
  Cl  Cl2244  1  0.06141250  0.25108750  0.12608750  1.0
  Cl  Cl2245  1  0.06141250  0.25108750  0.37608750  1.0
  Cl  Cl2246  1  0.06141250  0.25108750  0.62608750  1.0
  Cl  Cl2247  1  0.06141250  0.25108750  0.87608750  1.0
  Cl  Cl2248  1  0.06141250  0.50108750  0.12608750  1.0
  Cl  Cl2249  1  0.06141250  0.50108750  0.37608750  1.0
  Cl  Cl2250  1  0.06141250  0.50108750  0.62608750  1.0
  Cl  Cl2251  1  0.06141250  0.50108750  0.87608750  1.0
  Cl  Cl2252  1  0.06141250  0.75108750  0.12608750  1.0
  Cl  Cl2253  1  0.06141250  0.75108750  0.37608750  1.0
  Cl  Cl2254  1  0.06141250  0.75108750  0.62608750  1.0
  Cl  Cl2255  1  0.06141250  0.75108750  0.87608750  1.0
  Cl  Cl2256  1  0.31141250  0.00108750  0.12608750  1.0
  Cl  Cl2257  1  0.31141250  0.00108750  0.37608750  1.0
  Cl  Cl2258  1  0.31141250  0.00108750  0.62608750  1.0
  Cl  Cl2259  1  0.31141250  0.00108750  0.87608750  1.0
  Cl  Cl2260  1  0.31141250  0.25108750  0.12608750  1.0
  Cl  Cl2261  1  0.31141250  0.25108750  0.37608750  1.0
  Cl  Cl2262  1  0.31141250  0.25108750  0.62608750  1.0
  Cl  Cl2263  1  0.31141250  0.25108750  0.87608750  1.0
  Cl  Cl2264  1  0.31141250  0.50108750  0.12608750  1.0
  Cl  Cl2265  1  0.31141250  0.50108750  0.37608750  1.0
  Cl  Cl2266  1  0.31141250  0.50108750  0.62608750  1.0
  Cl  Cl2267  1  0.31141250  0.50108750  0.87608750  1.0
  Cl  Cl2268  1  0.31141250  0.75108750  0.12608750  1.0
  Cl  Cl2269  1  0.31141250  0.75108750  0.37608750  1.0
  Cl  Cl2270  1  0.31141250  0.75108750  0.62608750  1.0
  Cl  Cl2271  1  0.31141250  0.75108750  0.87608750  1.0
  Cl  Cl2272  1  0.56141250  0.00108750  0.12608750  1.0
  Cl  Cl2273  1  0.56141250  0.00108750  0.37608750  1.0
  Cl  Cl2274  1  0.56141250  0.00108750  0.62608750  1.0
  Cl  Cl2275  1  0.56141250  0.00108750  0.87608750  1.0
  Cl  Cl2276  1  0.56141250  0.25108750  0.12608750  1.0
  Cl  Cl2277  1  0.56141250  0.25108750  0.37608750  1.0
  Cl  Cl2278  1  0.56141250  0.25108750  0.62608750  1.0
  Cl  Cl2279  1  0.56141250  0.25108750  0.87608750  1.0
  Cl  Cl2280  1  0.56141250  0.50108750  0.12608750  1.0
  Cl  Cl2281  1  0.56141250  0.50108750  0.37608750  1.0
  Cl  Cl2282  1  0.56141250  0.50108750  0.62608750  1.0
  Cl  Cl2283  1  0.56141250  0.50108750  0.87608750  1.0
  Cl  Cl2284  1  0.56141250  0.75108750  0.12608750  1.0
  Cl  Cl2285  1  0.56141250  0.75108750  0.37608750  1.0
  Cl  Cl2286  1  0.56141250  0.75108750  0.62608750  1.0
  Cl  Cl2287  1  0.56141250  0.75108750  0.87608750  1.0
  Cl  Cl2288  1  0.81141250  0.00108750  0.12608750  1.0
  Cl  Cl2289  1  0.81141250  0.00108750  0.37608750  1.0
  Cl  Cl2290  1  0.81141250  0.00108750  0.62608750  1.0
  Cl  Cl2291  1  0.81141250  0.00108750  0.87608750  1.0
  Cl  Cl2292  1  0.81141250  0.25108750  0.12608750  1.0
  Cl  Cl2293  1  0.81141250  0.25108750  0.37608750  1.0
  Cl  Cl2294  1  0.81141250  0.25108750  0.62608750  1.0
  Cl  Cl2295  1  0.81141250  0.25108750  0.87608750  1.0
  Cl  Cl2296  1  0.81141250  0.50108750  0.12608750  1.0
  Cl  Cl2297  1  0.81141250  0.50108750  0.37608750  1.0
  Cl  Cl2298  1  0.81141250  0.50108750  0.62608750  1.0
  Cl  Cl2299  1  0.81141250  0.50108750  0.87608750  1.0
  Cl  Cl2300  1  0.81141250  0.75108750  0.12608750  1.0
  Cl  Cl2301  1  0.81141250  0.75108750  0.37608750  1.0
  Cl  Cl2302  1  0.81141250  0.75108750  0.62608750  1.0
  Cl  Cl2303  1  0.81141250  0.75108750  0.87608750  1.0
  Cl  Cl2304  1  0.06358750  0.18858750  0.18858750  1.0
  Cl  Cl2305  1  0.06358750  0.18858750  0.43858750  1.0
  Cl  Cl2306  1  0.06358750  0.18858750  0.68858750  1.0
  Cl  Cl2307  1  0.06358750  0.18858750  0.93858750  1.0
  Cl  Cl2308  1  0.06358750  0.43858750  0.18858750  1.0
  Cl  Cl2309  1  0.06358750  0.43858750  0.43858750  1.0
  Cl  Cl2310  1  0.06358750  0.43858750  0.68858750  1.0
  Cl  Cl2311  1  0.06358750  0.43858750  0.93858750  1.0
  Cl  Cl2312  1  0.06358750  0.68858750  0.18858750  1.0
  Cl  Cl2313  1  0.06358750  0.68858750  0.43858750  1.0
  Cl  Cl2314  1  0.06358750  0.68858750  0.68858750  1.0
  Cl  Cl2315  1  0.06358750  0.68858750  0.93858750  1.0
  Cl  Cl2316  1  0.06358750  0.93858750  0.18858750  1.0
  Cl  Cl2317  1  0.06358750  0.93858750  0.43858750  1.0
  Cl  Cl2318  1  0.06358750  0.93858750  0.68858750  1.0
  Cl  Cl2319  1  0.06358750  0.93858750  0.93858750  1.0
  Cl  Cl2320  1  0.31358750  0.18858750  0.18858750  1.0
  Cl  Cl2321  1  0.31358750  0.18858750  0.43858750  1.0
  Cl  Cl2322  1  0.31358750  0.18858750  0.68858750  1.0
  Cl  Cl2323  1  0.31358750  0.18858750  0.93858750  1.0
  Cl  Cl2324  1  0.31358750  0.43858750  0.18858750  1.0
  Cl  Cl2325  1  0.31358750  0.43858750  0.43858750  1.0
  Cl  Cl2326  1  0.31358750  0.43858750  0.68858750  1.0
  Cl  Cl2327  1  0.31358750  0.43858750  0.93858750  1.0
  Cl  Cl2328  1  0.31358750  0.68858750  0.18858750  1.0
  Cl  Cl2329  1  0.31358750  0.68858750  0.43858750  1.0
  Cl  Cl2330  1  0.31358750  0.68858750  0.68858750  1.0
  Cl  Cl2331  1  0.31358750  0.68858750  0.93858750  1.0
  Cl  Cl2332  1  0.31358750  0.93858750  0.18858750  1.0
  Cl  Cl2333  1  0.31358750  0.93858750  0.43858750  1.0
  Cl  Cl2334  1  0.31358750  0.93858750  0.68858750  1.0
  Cl  Cl2335  1  0.31358750  0.93858750  0.93858750  1.0
  Cl  Cl2336  1  0.56358750  0.18858750  0.18858750  1.0
  Cl  Cl2337  1  0.56358750  0.18858750  0.43858750  1.0
  Cl  Cl2338  1  0.56358750  0.18858750  0.68858750  1.0
  Cl  Cl2339  1  0.56358750  0.18858750  0.93858750  1.0
  Cl  Cl2340  1  0.56358750  0.43858750  0.18858750  1.0
  Cl  Cl2341  1  0.56358750  0.43858750  0.43858750  1.0
  Cl  Cl2342  1  0.56358750  0.43858750  0.68858750  1.0
  Cl  Cl2343  1  0.56358750  0.43858750  0.93858750  1.0
  Cl  Cl2344  1  0.56358750  0.68858750  0.18858750  1.0
  Cl  Cl2345  1  0.56358750  0.68858750  0.43858750  1.0
  Cl  Cl2346  1  0.56358750  0.68858750  0.68858750  1.0
  Cl  Cl2347  1  0.56358750  0.68858750  0.93858750  1.0
  Cl  Cl2348  1  0.56358750  0.93858750  0.18858750  1.0
  Cl  Cl2349  1  0.56358750  0.93858750  0.43858750  1.0
  Cl  Cl2350  1  0.56358750  0.93858750  0.68858750  1.0
  Cl  Cl2351  1  0.56358750  0.93858750  0.93858750  1.0
  Cl  Cl2352  1  0.81358750  0.18858750  0.18858750  1.0
  Cl  Cl2353  1  0.81358750  0.18858750  0.43858750  1.0
  Cl  Cl2354  1  0.81358750  0.18858750  0.68858750  1.0
  Cl  Cl2355  1  0.81358750  0.18858750  0.93858750  1.0
  Cl  Cl2356  1  0.81358750  0.43858750  0.18858750  1.0
  Cl  Cl2357  1  0.81358750  0.43858750  0.43858750  1.0
  Cl  Cl2358  1  0.81358750  0.43858750  0.68858750  1.0
  Cl  Cl2359  1  0.81358750  0.43858750  0.93858750  1.0
  Cl  Cl2360  1  0.81358750  0.68858750  0.18858750  1.0
  Cl  Cl2361  1  0.81358750  0.68858750  0.43858750  1.0
  Cl  Cl2362  1  0.81358750  0.68858750  0.68858750  1.0
  Cl  Cl2363  1  0.81358750  0.68858750  0.93858750  1.0
  Cl  Cl2364  1  0.81358750  0.93858750  0.18858750  1.0
  Cl  Cl2365  1  0.81358750  0.93858750  0.43858750  1.0
  Cl  Cl2366  1  0.81358750  0.93858750  0.68858750  1.0
  Cl  Cl2367  1  0.81358750  0.93858750  0.93858750  1.0
  Cl  Cl2368  1  0.12608750  0.00108750  0.06141250  1.0
  Cl  Cl2369  1  0.12608750  0.00108750  0.31141250  1.0
  Cl  Cl2370  1  0.12608750  0.00108750  0.56141250  1.0
  Cl  Cl2371  1  0.12608750  0.00108750  0.81141250  1.0
  Cl  Cl2372  1  0.12608750  0.25108750  0.06141250  1.0
  Cl  Cl2373  1  0.12608750  0.25108750  0.31141250  1.0
  Cl  Cl2374  1  0.12608750  0.25108750  0.56141250  1.0
  Cl  Cl2375  1  0.12608750  0.25108750  0.81141250  1.0
  Cl  Cl2376  1  0.12608750  0.50108750  0.06141250  1.0
  Cl  Cl2377  1  0.12608750  0.50108750  0.31141250  1.0
  Cl  Cl2378  1  0.12608750  0.50108750  0.56141250  1.0
  Cl  Cl2379  1  0.12608750  0.50108750  0.81141250  1.0
  Cl  Cl2380  1  0.12608750  0.75108750  0.06141250  1.0
  Cl  Cl2381  1  0.12608750  0.75108750  0.31141250  1.0
  Cl  Cl2382  1  0.12608750  0.75108750  0.56141250  1.0
  Cl  Cl2383  1  0.12608750  0.75108750  0.81141250  1.0
  Cl  Cl2384  1  0.37608750  0.00108750  0.06141250  1.0
  Cl  Cl2385  1  0.37608750  0.00108750  0.31141250  1.0
  Cl  Cl2386  1  0.37608750  0.00108750  0.56141250  1.0
  Cl  Cl2387  1  0.37608750  0.00108750  0.81141250  1.0
  Cl  Cl2388  1  0.37608750  0.25108750  0.06141250  1.0
  Cl  Cl2389  1  0.37608750  0.25108750  0.31141250  1.0
  Cl  Cl2390  1  0.37608750  0.25108750  0.56141250  1.0
  Cl  Cl2391  1  0.37608750  0.25108750  0.81141250  1.0
  Cl  Cl2392  1  0.37608750  0.50108750  0.06141250  1.0
  Cl  Cl2393  1  0.37608750  0.50108750  0.31141250  1.0
  Cl  Cl2394  1  0.37608750  0.50108750  0.56141250  1.0
  Cl  Cl2395  1  0.37608750  0.50108750  0.81141250  1.0
  Cl  Cl2396  1  0.37608750  0.75108750  0.06141250  1.0
  Cl  Cl2397  1  0.37608750  0.75108750  0.31141250  1.0
  Cl  Cl2398  1  0.37608750  0.75108750  0.56141250  1.0
  Cl  Cl2399  1  0.37608750  0.75108750  0.81141250  1.0
  Cl  Cl2400  1  0.62608750  0.00108750  0.06141250  1.0
  Cl  Cl2401  1  0.62608750  0.00108750  0.31141250  1.0
  Cl  Cl2402  1  0.62608750  0.00108750  0.56141250  1.0
  Cl  Cl2403  1  0.62608750  0.00108750  0.81141250  1.0
  Cl  Cl2404  1  0.62608750  0.25108750  0.06141250  1.0
  Cl  Cl2405  1  0.62608750  0.25108750  0.31141250  1.0
  Cl  Cl2406  1  0.62608750  0.25108750  0.56141250  1.0
  Cl  Cl2407  1  0.62608750  0.25108750  0.81141250  1.0
  Cl  Cl2408  1  0.62608750  0.50108750  0.06141250  1.0
  Cl  Cl2409  1  0.62608750  0.50108750  0.31141250  1.0
  Cl  Cl2410  1  0.62608750  0.50108750  0.56141250  1.0
  Cl  Cl2411  1  0.62608750  0.50108750  0.81141250  1.0
  Cl  Cl2412  1  0.62608750  0.75108750  0.06141250  1.0
  Cl  Cl2413  1  0.62608750  0.75108750  0.31141250  1.0
  Cl  Cl2414  1  0.62608750  0.75108750  0.56141250  1.0
  Cl  Cl2415  1  0.62608750  0.75108750  0.81141250  1.0
  Cl  Cl2416  1  0.87608750  0.00108750  0.06141250  1.0
  Cl  Cl2417  1  0.87608750  0.00108750  0.31141250  1.0
  Cl  Cl2418  1  0.87608750  0.00108750  0.56141250  1.0
  Cl  Cl2419  1  0.87608750  0.00108750  0.81141250  1.0
  Cl  Cl2420  1  0.87608750  0.25108750  0.06141250  1.0
  Cl  Cl2421  1  0.87608750  0.25108750  0.31141250  1.0
  Cl  Cl2422  1  0.87608750  0.25108750  0.56141250  1.0
  Cl  Cl2423  1  0.87608750  0.25108750  0.81141250  1.0
  Cl  Cl2424  1  0.87608750  0.50108750  0.06141250  1.0
  Cl  Cl2425  1  0.87608750  0.50108750  0.31141250  1.0
  Cl  Cl2426  1  0.87608750  0.50108750  0.56141250  1.0
  Cl  Cl2427  1  0.87608750  0.50108750  0.81141250  1.0
  Cl  Cl2428  1  0.87608750  0.75108750  0.06141250  1.0
  Cl  Cl2429  1  0.87608750  0.75108750  0.31141250  1.0
  Cl  Cl2430  1  0.87608750  0.75108750  0.56141250  1.0
  Cl  Cl2431  1  0.87608750  0.75108750  0.81141250  1.0
  Cl  Cl2432  1  0.18641250  0.06141250  0.06141250  1.0
  Cl  Cl2433  1  0.18641250  0.06141250  0.31141250  1.0
  Cl  Cl2434  1  0.18641250  0.06141250  0.56141250  1.0
  Cl  Cl2435  1  0.18641250  0.06141250  0.81141250  1.0
  Cl  Cl2436  1  0.18641250  0.31141250  0.06141250  1.0
  Cl  Cl2437  1  0.18641250  0.31141250  0.31141250  1.0
  Cl  Cl2438  1  0.18641250  0.31141250  0.56141250  1.0
  Cl  Cl2439  1  0.18641250  0.31141250  0.81141250  1.0
  Cl  Cl2440  1  0.18641250  0.56141250  0.06141250  1.0
  Cl  Cl2441  1  0.18641250  0.56141250  0.31141250  1.0
  Cl  Cl2442  1  0.18641250  0.56141250  0.56141250  1.0
  Cl  Cl2443  1  0.18641250  0.56141250  0.81141250  1.0
  Cl  Cl2444  1  0.18641250  0.81141250  0.06141250  1.0
  Cl  Cl2445  1  0.18641250  0.81141250  0.31141250  1.0
  Cl  Cl2446  1  0.18641250  0.81141250  0.56141250  1.0
  Cl  Cl2447  1  0.18641250  0.81141250  0.81141250  1.0
  Cl  Cl2448  1  0.43641250  0.06141250  0.06141250  1.0
  Cl  Cl2449  1  0.43641250  0.06141250  0.31141250  1.0
  Cl  Cl2450  1  0.43641250  0.06141250  0.56141250  1.0
  Cl  Cl2451  1  0.43641250  0.06141250  0.81141250  1.0
  Cl  Cl2452  1  0.43641250  0.31141250  0.06141250  1.0
  Cl  Cl2453  1  0.43641250  0.31141250  0.31141250  1.0
  Cl  Cl2454  1  0.43641250  0.31141250  0.56141250  1.0
  Cl  Cl2455  1  0.43641250  0.31141250  0.81141250  1.0
  Cl  Cl2456  1  0.43641250  0.56141250  0.06141250  1.0
  Cl  Cl2457  1  0.43641250  0.56141250  0.31141250  1.0
  Cl  Cl2458  1  0.43641250  0.56141250  0.56141250  1.0
  Cl  Cl2459  1  0.43641250  0.56141250  0.81141250  1.0
  Cl  Cl2460  1  0.43641250  0.81141250  0.06141250  1.0
  Cl  Cl2461  1  0.43641250  0.81141250  0.31141250  1.0
  Cl  Cl2462  1  0.43641250  0.81141250  0.56141250  1.0
  Cl  Cl2463  1  0.43641250  0.81141250  0.81141250  1.0
  Cl  Cl2464  1  0.68641250  0.06141250  0.06141250  1.0
  Cl  Cl2465  1  0.68641250  0.06141250  0.31141250  1.0
  Cl  Cl2466  1  0.68641250  0.06141250  0.56141250  1.0
  Cl  Cl2467  1  0.68641250  0.06141250  0.81141250  1.0
  Cl  Cl2468  1  0.68641250  0.31141250  0.06141250  1.0
  Cl  Cl2469  1  0.68641250  0.31141250  0.31141250  1.0
  Cl  Cl2470  1  0.68641250  0.31141250  0.56141250  1.0
  Cl  Cl2471  1  0.68641250  0.31141250  0.81141250  1.0
  Cl  Cl2472  1  0.68641250  0.56141250  0.06141250  1.0
  Cl  Cl2473  1  0.68641250  0.56141250  0.31141250  1.0
  Cl  Cl2474  1  0.68641250  0.56141250  0.56141250  1.0
  Cl  Cl2475  1  0.68641250  0.56141250  0.81141250  1.0
  Cl  Cl2476  1  0.68641250  0.81141250  0.06141250  1.0
  Cl  Cl2477  1  0.68641250  0.81141250  0.31141250  1.0
  Cl  Cl2478  1  0.68641250  0.81141250  0.56141250  1.0
  Cl  Cl2479  1  0.68641250  0.81141250  0.81141250  1.0
  Cl  Cl2480  1  0.93641250  0.06141250  0.06141250  1.0
  Cl  Cl2481  1  0.93641250  0.06141250  0.31141250  1.0
  Cl  Cl2482  1  0.93641250  0.06141250  0.56141250  1.0
  Cl  Cl2483  1  0.93641250  0.06141250  0.81141250  1.0
  Cl  Cl2484  1  0.93641250  0.31141250  0.06141250  1.0
  Cl  Cl2485  1  0.93641250  0.31141250  0.31141250  1.0
  Cl  Cl2486  1  0.93641250  0.31141250  0.56141250  1.0
  Cl  Cl2487  1  0.93641250  0.31141250  0.81141250  1.0
  Cl  Cl2488  1  0.93641250  0.56141250  0.06141250  1.0
  Cl  Cl2489  1  0.93641250  0.56141250  0.31141250  1.0
  Cl  Cl2490  1  0.93641250  0.56141250  0.56141250  1.0
  Cl  Cl2491  1  0.93641250  0.56141250  0.81141250  1.0
  Cl  Cl2492  1  0.93641250  0.81141250  0.06141250  1.0
  Cl  Cl2493  1  0.93641250  0.81141250  0.31141250  1.0
  Cl  Cl2494  1  0.93641250  0.81141250  0.56141250  1.0
  Cl  Cl2495  1  0.93641250  0.81141250  0.81141250  1.0
  Cl  Cl2496  1  0.24891250  0.12391250  0.18858750  1.0
  Cl  Cl2497  1  0.24891250  0.12391250  0.43858750  1.0
  Cl  Cl2498  1  0.24891250  0.12391250  0.68858750  1.0
  Cl  Cl2499  1  0.24891250  0.12391250  0.93858750  1.0
  Cl  Cl2500  1  0.24891250  0.37391250  0.18858750  1.0
  Cl  Cl2501  1  0.24891250  0.37391250  0.43858750  1.0
  Cl  Cl2502  1  0.24891250  0.37391250  0.68858750  1.0
  Cl  Cl2503  1  0.24891250  0.37391250  0.93858750  1.0
  Cl  Cl2504  1  0.24891250  0.62391250  0.18858750  1.0
  Cl  Cl2505  1  0.24891250  0.62391250  0.43858750  1.0
  Cl  Cl2506  1  0.24891250  0.62391250  0.68858750  1.0
  Cl  Cl2507  1  0.24891250  0.62391250  0.93858750  1.0
  Cl  Cl2508  1  0.24891250  0.87391250  0.18858750  1.0
  Cl  Cl2509  1  0.24891250  0.87391250  0.43858750  1.0
  Cl  Cl2510  1  0.24891250  0.87391250  0.68858750  1.0
  Cl  Cl2511  1  0.24891250  0.87391250  0.93858750  1.0
  Cl  Cl2512  1  0.49891250  0.12391250  0.18858750  1.0
  Cl  Cl2513  1  0.49891250  0.12391250  0.43858750  1.0
  Cl  Cl2514  1  0.49891250  0.12391250  0.68858750  1.0
  Cl  Cl2515  1  0.49891250  0.12391250  0.93858750  1.0
  Cl  Cl2516  1  0.49891250  0.37391250  0.18858750  1.0
  Cl  Cl2517  1  0.49891250  0.37391250  0.43858750  1.0
  Cl  Cl2518  1  0.49891250  0.37391250  0.68858750  1.0
  Cl  Cl2519  1  0.49891250  0.37391250  0.93858750  1.0
  Cl  Cl2520  1  0.49891250  0.62391250  0.18858750  1.0
  Cl  Cl2521  1  0.49891250  0.62391250  0.43858750  1.0
  Cl  Cl2522  1  0.49891250  0.62391250  0.68858750  1.0
  Cl  Cl2523  1  0.49891250  0.62391250  0.93858750  1.0
  Cl  Cl2524  1  0.49891250  0.87391250  0.18858750  1.0
  Cl  Cl2525  1  0.49891250  0.87391250  0.43858750  1.0
  Cl  Cl2526  1  0.49891250  0.87391250  0.68858750  1.0
  Cl  Cl2527  1  0.49891250  0.87391250  0.93858750  1.0
  Cl  Cl2528  1  0.74891250  0.12391250  0.18858750  1.0
  Cl  Cl2529  1  0.74891250  0.12391250  0.43858750  1.0
  Cl  Cl2530  1  0.74891250  0.12391250  0.68858750  1.0
  Cl  Cl2531  1  0.74891250  0.12391250  0.93858750  1.0
  Cl  Cl2532  1  0.74891250  0.37391250  0.18858750  1.0
  Cl  Cl2533  1  0.74891250  0.37391250  0.43858750  1.0
  Cl  Cl2534  1  0.74891250  0.37391250  0.68858750  1.0
  Cl  Cl2535  1  0.74891250  0.37391250  0.93858750  1.0
  Cl  Cl2536  1  0.74891250  0.62391250  0.18858750  1.0
  Cl  Cl2537  1  0.74891250  0.62391250  0.43858750  1.0
  Cl  Cl2538  1  0.74891250  0.62391250  0.68858750  1.0
  Cl  Cl2539  1  0.74891250  0.62391250  0.93858750  1.0
  Cl  Cl2540  1  0.74891250  0.87391250  0.18858750  1.0
  Cl  Cl2541  1  0.74891250  0.87391250  0.43858750  1.0
  Cl  Cl2542  1  0.74891250  0.87391250  0.68858750  1.0
  Cl  Cl2543  1  0.74891250  0.87391250  0.93858750  1.0
  Cl  Cl2544  1  0.99891250  0.12391250  0.18858750  1.0
  Cl  Cl2545  1  0.99891250  0.12391250  0.43858750  1.0
  Cl  Cl2546  1  0.99891250  0.12391250  0.68858750  1.0
  Cl  Cl2547  1  0.99891250  0.12391250  0.93858750  1.0
  Cl  Cl2548  1  0.99891250  0.37391250  0.18858750  1.0
  Cl  Cl2549  1  0.99891250  0.37391250  0.43858750  1.0
  Cl  Cl2550  1  0.99891250  0.37391250  0.68858750  1.0
  Cl  Cl2551  1  0.99891250  0.37391250  0.93858750  1.0
  Cl  Cl2552  1  0.99891250  0.62391250  0.18858750  1.0
  Cl  Cl2553  1  0.99891250  0.62391250  0.43858750  1.0
  Cl  Cl2554  1  0.99891250  0.62391250  0.68858750  1.0
  Cl  Cl2555  1  0.99891250  0.62391250  0.93858750  1.0
  Cl  Cl2556  1  0.99891250  0.87391250  0.18858750  1.0
  Cl  Cl2557  1  0.99891250  0.87391250  0.43858750  1.0
  Cl  Cl2558  1  0.99891250  0.87391250  0.68858750  1.0
  Cl  Cl2559  1  0.99891250  0.87391250  0.93858750  1.0
  Cl  Cl2560  1  0.06358750  0.12391250  0.12391250  1.0
  Cl  Cl2561  1  0.06358750  0.12391250  0.37391250  1.0
  Cl  Cl2562  1  0.06358750  0.12391250  0.62391250  1.0
  Cl  Cl2563  1  0.06358750  0.12391250  0.87391250  1.0
  Cl  Cl2564  1  0.06358750  0.37391250  0.12391250  1.0
  Cl  Cl2565  1  0.06358750  0.37391250  0.37391250  1.0
  Cl  Cl2566  1  0.06358750  0.37391250  0.62391250  1.0
  Cl  Cl2567  1  0.06358750  0.37391250  0.87391250  1.0
  Cl  Cl2568  1  0.06358750  0.62391250  0.12391250  1.0
  Cl  Cl2569  1  0.06358750  0.62391250  0.37391250  1.0
  Cl  Cl2570  1  0.06358750  0.62391250  0.62391250  1.0
  Cl  Cl2571  1  0.06358750  0.62391250  0.87391250  1.0
  Cl  Cl2572  1  0.06358750  0.87391250  0.12391250  1.0
  Cl  Cl2573  1  0.06358750  0.87391250  0.37391250  1.0
  Cl  Cl2574  1  0.06358750  0.87391250  0.62391250  1.0
  Cl  Cl2575  1  0.06358750  0.87391250  0.87391250  1.0
  Cl  Cl2576  1  0.31358750  0.12391250  0.12391250  1.0
  Cl  Cl2577  1  0.31358750  0.12391250  0.37391250  1.0
  Cl  Cl2578  1  0.31358750  0.12391250  0.62391250  1.0
  Cl  Cl2579  1  0.31358750  0.12391250  0.87391250  1.0
  Cl  Cl2580  1  0.31358750  0.37391250  0.12391250  1.0
  Cl  Cl2581  1  0.31358750  0.37391250  0.37391250  1.0
  Cl  Cl2582  1  0.31358750  0.37391250  0.62391250  1.0
  Cl  Cl2583  1  0.31358750  0.37391250  0.87391250  1.0
  Cl  Cl2584  1  0.31358750  0.62391250  0.12391250  1.0
  Cl  Cl2585  1  0.31358750  0.62391250  0.37391250  1.0
  Cl  Cl2586  1  0.31358750  0.62391250  0.62391250  1.0
  Cl  Cl2587  1  0.31358750  0.62391250  0.87391250  1.0
  Cl  Cl2588  1  0.31358750  0.87391250  0.12391250  1.0
  Cl  Cl2589  1  0.31358750  0.87391250  0.37391250  1.0
  Cl  Cl2590  1  0.31358750  0.87391250  0.62391250  1.0
  Cl  Cl2591  1  0.31358750  0.87391250  0.87391250  1.0
  Cl  Cl2592  1  0.56358750  0.12391250  0.12391250  1.0
  Cl  Cl2593  1  0.56358750  0.12391250  0.37391250  1.0
  Cl  Cl2594  1  0.56358750  0.12391250  0.62391250  1.0
  Cl  Cl2595  1  0.56358750  0.12391250  0.87391250  1.0
  Cl  Cl2596  1  0.56358750  0.37391250  0.12391250  1.0
  Cl  Cl2597  1  0.56358750  0.37391250  0.37391250  1.0
  Cl  Cl2598  1  0.56358750  0.37391250  0.62391250  1.0
  Cl  Cl2599  1  0.56358750  0.37391250  0.87391250  1.0
  Cl  Cl2600  1  0.56358750  0.62391250  0.12391250  1.0
  Cl  Cl2601  1  0.56358750  0.62391250  0.37391250  1.0
  Cl  Cl2602  1  0.56358750  0.62391250  0.62391250  1.0
  Cl  Cl2603  1  0.56358750  0.62391250  0.87391250  1.0
  Cl  Cl2604  1  0.56358750  0.87391250  0.12391250  1.0
  Cl  Cl2605  1  0.56358750  0.87391250  0.37391250  1.0
  Cl  Cl2606  1  0.56358750  0.87391250  0.62391250  1.0
  Cl  Cl2607  1  0.56358750  0.87391250  0.87391250  1.0
  Cl  Cl2608  1  0.81358750  0.12391250  0.12391250  1.0
  Cl  Cl2609  1  0.81358750  0.12391250  0.37391250  1.0
  Cl  Cl2610  1  0.81358750  0.12391250  0.62391250  1.0
  Cl  Cl2611  1  0.81358750  0.12391250  0.87391250  1.0
  Cl  Cl2612  1  0.81358750  0.37391250  0.12391250  1.0
  Cl  Cl2613  1  0.81358750  0.37391250  0.37391250  1.0
  Cl  Cl2614  1  0.81358750  0.37391250  0.62391250  1.0
  Cl  Cl2615  1  0.81358750  0.37391250  0.87391250  1.0
  Cl  Cl2616  1  0.81358750  0.62391250  0.12391250  1.0
  Cl  Cl2617  1  0.81358750  0.62391250  0.37391250  1.0
  Cl  Cl2618  1  0.81358750  0.62391250  0.62391250  1.0
  Cl  Cl2619  1  0.81358750  0.62391250  0.87391250  1.0
  Cl  Cl2620  1  0.81358750  0.87391250  0.12391250  1.0
  Cl  Cl2621  1  0.81358750  0.87391250  0.37391250  1.0
  Cl  Cl2622  1  0.81358750  0.87391250  0.62391250  1.0
  Cl  Cl2623  1  0.81358750  0.87391250  0.87391250  1.0
  Cl  Cl2624  1  0.18641250  0.00108750  0.00108750  1.0
  Cl  Cl2625  1  0.18641250  0.00108750  0.25108750  1.0
  Cl  Cl2626  1  0.18641250  0.00108750  0.50108750  1.0
  Cl  Cl2627  1  0.18641250  0.00108750  0.75108750  1.0
  Cl  Cl2628  1  0.18641250  0.25108750  0.00108750  1.0
  Cl  Cl2629  1  0.18641250  0.25108750  0.25108750  1.0
  Cl  Cl2630  1  0.18641250  0.25108750  0.50108750  1.0
  Cl  Cl2631  1  0.18641250  0.25108750  0.75108750  1.0
  Cl  Cl2632  1  0.18641250  0.50108750  0.00108750  1.0
  Cl  Cl2633  1  0.18641250  0.50108750  0.25108750  1.0
  Cl  Cl2634  1  0.18641250  0.50108750  0.50108750  1.0
  Cl  Cl2635  1  0.18641250  0.50108750  0.75108750  1.0
  Cl  Cl2636  1  0.18641250  0.75108750  0.00108750  1.0
  Cl  Cl2637  1  0.18641250  0.75108750  0.25108750  1.0
  Cl  Cl2638  1  0.18641250  0.75108750  0.50108750  1.0
  Cl  Cl2639  1  0.18641250  0.75108750  0.75108750  1.0
  Cl  Cl2640  1  0.43641250  0.00108750  0.00108750  1.0
  Cl  Cl2641  1  0.43641250  0.00108750  0.25108750  1.0
  Cl  Cl2642  1  0.43641250  0.00108750  0.50108750  1.0
  Cl  Cl2643  1  0.43641250  0.00108750  0.75108750  1.0
  Cl  Cl2644  1  0.43641250  0.25108750  0.00108750  1.0
  Cl  Cl2645  1  0.43641250  0.25108750  0.25108750  1.0
  Cl  Cl2646  1  0.43641250  0.25108750  0.50108750  1.0
  Cl  Cl2647  1  0.43641250  0.25108750  0.75108750  1.0
  Cl  Cl2648  1  0.43641250  0.50108750  0.00108750  1.0
  Cl  Cl2649  1  0.43641250  0.50108750  0.25108750  1.0
  Cl  Cl2650  1  0.43641250  0.50108750  0.50108750  1.0
  Cl  Cl2651  1  0.43641250  0.50108750  0.75108750  1.0
  Cl  Cl2652  1  0.43641250  0.75108750  0.00108750  1.0
  Cl  Cl2653  1  0.43641250  0.75108750  0.25108750  1.0
  Cl  Cl2654  1  0.43641250  0.75108750  0.50108750  1.0
  Cl  Cl2655  1  0.43641250  0.75108750  0.75108750  1.0
  Cl  Cl2656  1  0.68641250  0.00108750  0.00108750  1.0
  Cl  Cl2657  1  0.68641250  0.00108750  0.25108750  1.0
  Cl  Cl2658  1  0.68641250  0.00108750  0.50108750  1.0
  Cl  Cl2659  1  0.68641250  0.00108750  0.75108750  1.0
  Cl  Cl2660  1  0.68641250  0.25108750  0.00108750  1.0
  Cl  Cl2661  1  0.68641250  0.25108750  0.25108750  1.0
  Cl  Cl2662  1  0.68641250  0.25108750  0.50108750  1.0
  Cl  Cl2663  1  0.68641250  0.25108750  0.75108750  1.0
  Cl  Cl2664  1  0.68641250  0.50108750  0.00108750  1.0
  Cl  Cl2665  1  0.68641250  0.50108750  0.25108750  1.0
  Cl  Cl2666  1  0.68641250  0.50108750  0.50108750  1.0
  Cl  Cl2667  1  0.68641250  0.50108750  0.75108750  1.0
  Cl  Cl2668  1  0.68641250  0.75108750  0.00108750  1.0
  Cl  Cl2669  1  0.68641250  0.75108750  0.25108750  1.0
  Cl  Cl2670  1  0.68641250  0.75108750  0.50108750  1.0
  Cl  Cl2671  1  0.68641250  0.75108750  0.75108750  1.0
  Cl  Cl2672  1  0.93641250  0.00108750  0.00108750  1.0
  Cl  Cl2673  1  0.93641250  0.00108750  0.25108750  1.0
  Cl  Cl2674  1  0.93641250  0.00108750  0.50108750  1.0
  Cl  Cl2675  1  0.93641250  0.00108750  0.75108750  1.0
  Cl  Cl2676  1  0.93641250  0.25108750  0.00108750  1.0
  Cl  Cl2677  1  0.93641250  0.25108750  0.25108750  1.0
  Cl  Cl2678  1  0.93641250  0.25108750  0.50108750  1.0
  Cl  Cl2679  1  0.93641250  0.25108750  0.75108750  1.0
  Cl  Cl2680  1  0.93641250  0.50108750  0.00108750  1.0
  Cl  Cl2681  1  0.93641250  0.50108750  0.25108750  1.0
  Cl  Cl2682  1  0.93641250  0.50108750  0.50108750  1.0
  Cl  Cl2683  1  0.93641250  0.50108750  0.75108750  1.0
  Cl  Cl2684  1  0.93641250  0.75108750  0.00108750  1.0
  Cl  Cl2685  1  0.93641250  0.75108750  0.25108750  1.0
  Cl  Cl2686  1  0.93641250  0.75108750  0.50108750  1.0
  Cl  Cl2687  1  0.93641250  0.75108750  0.75108750  1.0
  Cl  Cl2688  1  0.06141250  0.12608750  0.00108750  1.0
  Cl  Cl2689  1  0.06141250  0.12608750  0.25108750  1.0
  Cl  Cl2690  1  0.06141250  0.12608750  0.50108750  1.0
  Cl  Cl2691  1  0.06141250  0.12608750  0.75108750  1.0
  Cl  Cl2692  1  0.06141250  0.37608750  0.00108750  1.0
  Cl  Cl2693  1  0.06141250  0.37608750  0.25108750  1.0
  Cl  Cl2694  1  0.06141250  0.37608750  0.50108750  1.0
  Cl  Cl2695  1  0.06141250  0.37608750  0.75108750  1.0
  Cl  Cl2696  1  0.06141250  0.62608750  0.00108750  1.0
  Cl  Cl2697  1  0.06141250  0.62608750  0.25108750  1.0
  Cl  Cl2698  1  0.06141250  0.62608750  0.50108750  1.0
  Cl  Cl2699  1  0.06141250  0.62608750  0.75108750  1.0
  Cl  Cl2700  1  0.06141250  0.87608750  0.00108750  1.0
  Cl  Cl2701  1  0.06141250  0.87608750  0.25108750  1.0
  Cl  Cl2702  1  0.06141250  0.87608750  0.50108750  1.0
  Cl  Cl2703  1  0.06141250  0.87608750  0.75108750  1.0
  Cl  Cl2704  1  0.31141250  0.12608750  0.00108750  1.0
  Cl  Cl2705  1  0.31141250  0.12608750  0.25108750  1.0
  Cl  Cl2706  1  0.31141250  0.12608750  0.50108750  1.0
  Cl  Cl2707  1  0.31141250  0.12608750  0.75108750  1.0
  Cl  Cl2708  1  0.31141250  0.37608750  0.00108750  1.0
  Cl  Cl2709  1  0.31141250  0.37608750  0.25108750  1.0
  Cl  Cl2710  1  0.31141250  0.37608750  0.50108750  1.0
  Cl  Cl2711  1  0.31141250  0.37608750  0.75108750  1.0
  Cl  Cl2712  1  0.31141250  0.62608750  0.00108750  1.0
  Cl  Cl2713  1  0.31141250  0.62608750  0.25108750  1.0
  Cl  Cl2714  1  0.31141250  0.62608750  0.50108750  1.0
  Cl  Cl2715  1  0.31141250  0.62608750  0.75108750  1.0
  Cl  Cl2716  1  0.31141250  0.87608750  0.00108750  1.0
  Cl  Cl2717  1  0.31141250  0.87608750  0.25108750  1.0
  Cl  Cl2718  1  0.31141250  0.87608750  0.50108750  1.0
  Cl  Cl2719  1  0.31141250  0.87608750  0.75108750  1.0
  Cl  Cl2720  1  0.56141250  0.12608750  0.00108750  1.0
  Cl  Cl2721  1  0.56141250  0.12608750  0.25108750  1.0
  Cl  Cl2722  1  0.56141250  0.12608750  0.50108750  1.0
  Cl  Cl2723  1  0.56141250  0.12608750  0.75108750  1.0
  Cl  Cl2724  1  0.56141250  0.37608750  0.00108750  1.0
  Cl  Cl2725  1  0.56141250  0.37608750  0.25108750  1.0
  Cl  Cl2726  1  0.56141250  0.37608750  0.50108750  1.0
  Cl  Cl2727  1  0.56141250  0.37608750  0.75108750  1.0
  Cl  Cl2728  1  0.56141250  0.62608750  0.00108750  1.0
  Cl  Cl2729  1  0.56141250  0.62608750  0.25108750  1.0
  Cl  Cl2730  1  0.56141250  0.62608750  0.50108750  1.0
  Cl  Cl2731  1  0.56141250  0.62608750  0.75108750  1.0
  Cl  Cl2732  1  0.56141250  0.87608750  0.00108750  1.0
  Cl  Cl2733  1  0.56141250  0.87608750  0.25108750  1.0
  Cl  Cl2734  1  0.56141250  0.87608750  0.50108750  1.0
  Cl  Cl2735  1  0.56141250  0.87608750  0.75108750  1.0
  Cl  Cl2736  1  0.81141250  0.12608750  0.00108750  1.0
  Cl  Cl2737  1  0.81141250  0.12608750  0.25108750  1.0
  Cl  Cl2738  1  0.81141250  0.12608750  0.50108750  1.0
  Cl  Cl2739  1  0.81141250  0.12608750  0.75108750  1.0
  Cl  Cl2740  1  0.81141250  0.37608750  0.00108750  1.0
  Cl  Cl2741  1  0.81141250  0.37608750  0.25108750  1.0
  Cl  Cl2742  1  0.81141250  0.37608750  0.50108750  1.0
  Cl  Cl2743  1  0.81141250  0.37608750  0.75108750  1.0
  Cl  Cl2744  1  0.81141250  0.62608750  0.00108750  1.0
  Cl  Cl2745  1  0.81141250  0.62608750  0.25108750  1.0
  Cl  Cl2746  1  0.81141250  0.62608750  0.50108750  1.0
  Cl  Cl2747  1  0.81141250  0.62608750  0.75108750  1.0
  Cl  Cl2748  1  0.81141250  0.87608750  0.00108750  1.0
  Cl  Cl2749  1  0.81141250  0.87608750  0.25108750  1.0
  Cl  Cl2750  1  0.81141250  0.87608750  0.50108750  1.0
  Cl  Cl2751  1  0.81141250  0.87608750  0.75108750  1.0
  Cl  Cl2752  1  0.24891250  0.24891250  0.06358750  1.0
  Cl  Cl2753  1  0.24891250  0.24891250  0.31358750  1.0
  Cl  Cl2754  1  0.24891250  0.24891250  0.56358750  1.0
  Cl  Cl2755  1  0.24891250  0.24891250  0.81358750  1.0
  Cl  Cl2756  1  0.24891250  0.49891250  0.06358750  1.0
  Cl  Cl2757  1  0.24891250  0.49891250  0.31358750  1.0
  Cl  Cl2758  1  0.24891250  0.49891250  0.56358750  1.0
  Cl  Cl2759  1  0.24891250  0.49891250  0.81358750  1.0
  Cl  Cl2760  1  0.24891250  0.74891250  0.06358750  1.0
  Cl  Cl2761  1  0.24891250  0.74891250  0.31358750  1.0
  Cl  Cl2762  1  0.24891250  0.74891250  0.56358750  1.0
  Cl  Cl2763  1  0.24891250  0.74891250  0.81358750  1.0
  Cl  Cl2764  1  0.24891250  0.99891250  0.06358750  1.0
  Cl  Cl2765  1  0.24891250  0.99891250  0.31358750  1.0
  Cl  Cl2766  1  0.24891250  0.99891250  0.56358750  1.0
  Cl  Cl2767  1  0.24891250  0.99891250  0.81358750  1.0
  Cl  Cl2768  1  0.49891250  0.24891250  0.06358750  1.0
  Cl  Cl2769  1  0.49891250  0.24891250  0.31358750  1.0
  Cl  Cl2770  1  0.49891250  0.24891250  0.56358750  1.0
  Cl  Cl2771  1  0.49891250  0.24891250  0.81358750  1.0
  Cl  Cl2772  1  0.49891250  0.49891250  0.06358750  1.0
  Cl  Cl2773  1  0.49891250  0.49891250  0.31358750  1.0
  Cl  Cl2774  1  0.49891250  0.49891250  0.56358750  1.0
  Cl  Cl2775  1  0.49891250  0.49891250  0.81358750  1.0
  Cl  Cl2776  1  0.49891250  0.74891250  0.06358750  1.0
  Cl  Cl2777  1  0.49891250  0.74891250  0.31358750  1.0
  Cl  Cl2778  1  0.49891250  0.74891250  0.56358750  1.0
  Cl  Cl2779  1  0.49891250  0.74891250  0.81358750  1.0
  Cl  Cl2780  1  0.49891250  0.99891250  0.06358750  1.0
  Cl  Cl2781  1  0.49891250  0.99891250  0.31358750  1.0
  Cl  Cl2782  1  0.49891250  0.99891250  0.56358750  1.0
  Cl  Cl2783  1  0.49891250  0.99891250  0.81358750  1.0
  Cl  Cl2784  1  0.74891250  0.24891250  0.06358750  1.0
  Cl  Cl2785  1  0.74891250  0.24891250  0.31358750  1.0
  Cl  Cl2786  1  0.74891250  0.24891250  0.56358750  1.0
  Cl  Cl2787  1  0.74891250  0.24891250  0.81358750  1.0
  Cl  Cl2788  1  0.74891250  0.49891250  0.06358750  1.0
  Cl  Cl2789  1  0.74891250  0.49891250  0.31358750  1.0
  Cl  Cl2790  1  0.74891250  0.49891250  0.56358750  1.0
  Cl  Cl2791  1  0.74891250  0.49891250  0.81358750  1.0
  Cl  Cl2792  1  0.74891250  0.74891250  0.06358750  1.0
  Cl  Cl2793  1  0.74891250  0.74891250  0.31358750  1.0
  Cl  Cl2794  1  0.74891250  0.74891250  0.56358750  1.0
  Cl  Cl2795  1  0.74891250  0.74891250  0.81358750  1.0
  Cl  Cl2796  1  0.74891250  0.99891250  0.06358750  1.0
  Cl  Cl2797  1  0.74891250  0.99891250  0.31358750  1.0
  Cl  Cl2798  1  0.74891250  0.99891250  0.56358750  1.0
  Cl  Cl2799  1  0.74891250  0.99891250  0.81358750  1.0
  Cl  Cl2800  1  0.99891250  0.24891250  0.06358750  1.0
  Cl  Cl2801  1  0.99891250  0.24891250  0.31358750  1.0
  Cl  Cl2802  1  0.99891250  0.24891250  0.56358750  1.0
  Cl  Cl2803  1  0.99891250  0.24891250  0.81358750  1.0
  Cl  Cl2804  1  0.99891250  0.49891250  0.06358750  1.0
  Cl  Cl2805  1  0.99891250  0.49891250  0.31358750  1.0
  Cl  Cl2806  1  0.99891250  0.49891250  0.56358750  1.0
  Cl  Cl2807  1  0.99891250  0.49891250  0.81358750  1.0
  Cl  Cl2808  1  0.99891250  0.74891250  0.06358750  1.0
  Cl  Cl2809  1  0.99891250  0.74891250  0.31358750  1.0
  Cl  Cl2810  1  0.99891250  0.74891250  0.56358750  1.0
  Cl  Cl2811  1  0.99891250  0.74891250  0.81358750  1.0
  Cl  Cl2812  1  0.99891250  0.99891250  0.06358750  1.0
  Cl  Cl2813  1  0.99891250  0.99891250  0.31358750  1.0
  Cl  Cl2814  1  0.99891250  0.99891250  0.56358750  1.0
  Cl  Cl2815  1  0.99891250  0.99891250  0.81358750  1.0
  Cl  Cl2816  1  0.12608750  0.12608750  0.18641250  1.0
  Cl  Cl2817  1  0.12608750  0.12608750  0.43641250  1.0
  Cl  Cl2818  1  0.12608750  0.12608750  0.68641250  1.0
  Cl  Cl2819  1  0.12608750  0.12608750  0.93641250  1.0
  Cl  Cl2820  1  0.12608750  0.37608750  0.18641250  1.0
  Cl  Cl2821  1  0.12608750  0.37608750  0.43641250  1.0
  Cl  Cl2822  1  0.12608750  0.37608750  0.68641250  1.0
  Cl  Cl2823  1  0.12608750  0.37608750  0.93641250  1.0
  Cl  Cl2824  1  0.12608750  0.62608750  0.18641250  1.0
  Cl  Cl2825  1  0.12608750  0.62608750  0.43641250  1.0
  Cl  Cl2826  1  0.12608750  0.62608750  0.68641250  1.0
  Cl  Cl2827  1  0.12608750  0.62608750  0.93641250  1.0
  Cl  Cl2828  1  0.12608750  0.87608750  0.18641250  1.0
  Cl  Cl2829  1  0.12608750  0.87608750  0.43641250  1.0
  Cl  Cl2830  1  0.12608750  0.87608750  0.68641250  1.0
  Cl  Cl2831  1  0.12608750  0.87608750  0.93641250  1.0
  Cl  Cl2832  1  0.37608750  0.12608750  0.18641250  1.0
  Cl  Cl2833  1  0.37608750  0.12608750  0.43641250  1.0
  Cl  Cl2834  1  0.37608750  0.12608750  0.68641250  1.0
  Cl  Cl2835  1  0.37608750  0.12608750  0.93641250  1.0
  Cl  Cl2836  1  0.37608750  0.37608750  0.18641250  1.0
  Cl  Cl2837  1  0.37608750  0.37608750  0.43641250  1.0
  Cl  Cl2838  1  0.37608750  0.37608750  0.68641250  1.0
  Cl  Cl2839  1  0.37608750  0.37608750  0.93641250  1.0
  Cl  Cl2840  1  0.37608750  0.62608750  0.18641250  1.0
  Cl  Cl2841  1  0.37608750  0.62608750  0.43641250  1.0
  Cl  Cl2842  1  0.37608750  0.62608750  0.68641250  1.0
  Cl  Cl2843  1  0.37608750  0.62608750  0.93641250  1.0
  Cl  Cl2844  1  0.37608750  0.87608750  0.18641250  1.0
  Cl  Cl2845  1  0.37608750  0.87608750  0.43641250  1.0
  Cl  Cl2846  1  0.37608750  0.87608750  0.68641250  1.0
  Cl  Cl2847  1  0.37608750  0.87608750  0.93641250  1.0
  Cl  Cl2848  1  0.62608750  0.12608750  0.18641250  1.0
  Cl  Cl2849  1  0.62608750  0.12608750  0.43641250  1.0
  Cl  Cl2850  1  0.62608750  0.12608750  0.68641250  1.0
  Cl  Cl2851  1  0.62608750  0.12608750  0.93641250  1.0
  Cl  Cl2852  1  0.62608750  0.37608750  0.18641250  1.0
  Cl  Cl2853  1  0.62608750  0.37608750  0.43641250  1.0
  Cl  Cl2854  1  0.62608750  0.37608750  0.68641250  1.0
  Cl  Cl2855  1  0.62608750  0.37608750  0.93641250  1.0
  Cl  Cl2856  1  0.62608750  0.62608750  0.18641250  1.0
  Cl  Cl2857  1  0.62608750  0.62608750  0.43641250  1.0
  Cl  Cl2858  1  0.62608750  0.62608750  0.68641250  1.0
  Cl  Cl2859  1  0.62608750  0.62608750  0.93641250  1.0
  Cl  Cl2860  1  0.62608750  0.87608750  0.18641250  1.0
  Cl  Cl2861  1  0.62608750  0.87608750  0.43641250  1.0
  Cl  Cl2862  1  0.62608750  0.87608750  0.68641250  1.0
  Cl  Cl2863  1  0.62608750  0.87608750  0.93641250  1.0
  Cl  Cl2864  1  0.87608750  0.12608750  0.18641250  1.0
  Cl  Cl2865  1  0.87608750  0.12608750  0.43641250  1.0
  Cl  Cl2866  1  0.87608750  0.12608750  0.68641250  1.0
  Cl  Cl2867  1  0.87608750  0.12608750  0.93641250  1.0
  Cl  Cl2868  1  0.87608750  0.37608750  0.18641250  1.0
  Cl  Cl2869  1  0.87608750  0.37608750  0.43641250  1.0
  Cl  Cl2870  1  0.87608750  0.37608750  0.68641250  1.0
  Cl  Cl2871  1  0.87608750  0.37608750  0.93641250  1.0
  Cl  Cl2872  1  0.87608750  0.62608750  0.18641250  1.0
  Cl  Cl2873  1  0.87608750  0.62608750  0.43641250  1.0
  Cl  Cl2874  1  0.87608750  0.62608750  0.68641250  1.0
  Cl  Cl2875  1  0.87608750  0.62608750  0.93641250  1.0
  Cl  Cl2876  1  0.87608750  0.87608750  0.18641250  1.0
  Cl  Cl2877  1  0.87608750  0.87608750  0.43641250  1.0
  Cl  Cl2878  1  0.87608750  0.87608750  0.68641250  1.0
  Cl  Cl2879  1  0.87608750  0.87608750  0.93641250  1.0
  Cl  Cl2880  1  0.18858750  0.24891250  0.12391250  1.0
  Cl  Cl2881  1  0.18858750  0.24891250  0.37391250  1.0
  Cl  Cl2882  1  0.18858750  0.24891250  0.62391250  1.0
  Cl  Cl2883  1  0.18858750  0.24891250  0.87391250  1.0
  Cl  Cl2884  1  0.18858750  0.49891250  0.12391250  1.0
  Cl  Cl2885  1  0.18858750  0.49891250  0.37391250  1.0
  Cl  Cl2886  1  0.18858750  0.49891250  0.62391250  1.0
  Cl  Cl2887  1  0.18858750  0.49891250  0.87391250  1.0
  Cl  Cl2888  1  0.18858750  0.74891250  0.12391250  1.0
  Cl  Cl2889  1  0.18858750  0.74891250  0.37391250  1.0
  Cl  Cl2890  1  0.18858750  0.74891250  0.62391250  1.0
  Cl  Cl2891  1  0.18858750  0.74891250  0.87391250  1.0
  Cl  Cl2892  1  0.18858750  0.99891250  0.12391250  1.0
  Cl  Cl2893  1  0.18858750  0.99891250  0.37391250  1.0
  Cl  Cl2894  1  0.18858750  0.99891250  0.62391250  1.0
  Cl  Cl2895  1  0.18858750  0.99891250  0.87391250  1.0
  Cl  Cl2896  1  0.43858750  0.24891250  0.12391250  1.0
  Cl  Cl2897  1  0.43858750  0.24891250  0.37391250  1.0
  Cl  Cl2898  1  0.43858750  0.24891250  0.62391250  1.0
  Cl  Cl2899  1  0.43858750  0.24891250  0.87391250  1.0
  Cl  Cl2900  1  0.43858750  0.49891250  0.12391250  1.0
  Cl  Cl2901  1  0.43858750  0.49891250  0.37391250  1.0
  Cl  Cl2902  1  0.43858750  0.49891250  0.62391250  1.0
  Cl  Cl2903  1  0.43858750  0.49891250  0.87391250  1.0
  Cl  Cl2904  1  0.43858750  0.74891250  0.12391250  1.0
  Cl  Cl2905  1  0.43858750  0.74891250  0.37391250  1.0
  Cl  Cl2906  1  0.43858750  0.74891250  0.62391250  1.0
  Cl  Cl2907  1  0.43858750  0.74891250  0.87391250  1.0
  Cl  Cl2908  1  0.43858750  0.99891250  0.12391250  1.0
  Cl  Cl2909  1  0.43858750  0.99891250  0.37391250  1.0
  Cl  Cl2910  1  0.43858750  0.99891250  0.62391250  1.0
  Cl  Cl2911  1  0.43858750  0.99891250  0.87391250  1.0
  Cl  Cl2912  1  0.68858750  0.24891250  0.12391250  1.0
  Cl  Cl2913  1  0.68858750  0.24891250  0.37391250  1.0
  Cl  Cl2914  1  0.68858750  0.24891250  0.62391250  1.0
  Cl  Cl2915  1  0.68858750  0.24891250  0.87391250  1.0
  Cl  Cl2916  1  0.68858750  0.49891250  0.12391250  1.0
  Cl  Cl2917  1  0.68858750  0.49891250  0.37391250  1.0
  Cl  Cl2918  1  0.68858750  0.49891250  0.62391250  1.0
  Cl  Cl2919  1  0.68858750  0.49891250  0.87391250  1.0
  Cl  Cl2920  1  0.68858750  0.74891250  0.12391250  1.0
  Cl  Cl2921  1  0.68858750  0.74891250  0.37391250  1.0
  Cl  Cl2922  1  0.68858750  0.74891250  0.62391250  1.0
  Cl  Cl2923  1  0.68858750  0.74891250  0.87391250  1.0
  Cl  Cl2924  1  0.68858750  0.99891250  0.12391250  1.0
  Cl  Cl2925  1  0.68858750  0.99891250  0.37391250  1.0
  Cl  Cl2926  1  0.68858750  0.99891250  0.62391250  1.0
  Cl  Cl2927  1  0.68858750  0.99891250  0.87391250  1.0
  Cl  Cl2928  1  0.93858750  0.24891250  0.12391250  1.0
  Cl  Cl2929  1  0.93858750  0.24891250  0.37391250  1.0
  Cl  Cl2930  1  0.93858750  0.24891250  0.62391250  1.0
  Cl  Cl2931  1  0.93858750  0.24891250  0.87391250  1.0
  Cl  Cl2932  1  0.93858750  0.49891250  0.12391250  1.0
  Cl  Cl2933  1  0.93858750  0.49891250  0.37391250  1.0
  Cl  Cl2934  1  0.93858750  0.49891250  0.62391250  1.0
  Cl  Cl2935  1  0.93858750  0.49891250  0.87391250  1.0
  Cl  Cl2936  1  0.93858750  0.74891250  0.12391250  1.0
  Cl  Cl2937  1  0.93858750  0.74891250  0.37391250  1.0
  Cl  Cl2938  1  0.93858750  0.74891250  0.62391250  1.0
  Cl  Cl2939  1  0.93858750  0.74891250  0.87391250  1.0
  Cl  Cl2940  1  0.93858750  0.99891250  0.12391250  1.0
  Cl  Cl2941  1  0.93858750  0.99891250  0.37391250  1.0
  Cl  Cl2942  1  0.93858750  0.99891250  0.62391250  1.0
  Cl  Cl2943  1  0.93858750  0.99891250  0.87391250  1.0
  Cl  Cl2944  1  0.00108750  0.06141250  0.12608750  1.0
  Cl  Cl2945  1  0.00108750  0.06141250  0.37608750  1.0
  Cl  Cl2946  1  0.00108750  0.06141250  0.62608750  1.0
  Cl  Cl2947  1  0.00108750  0.06141250  0.87608750  1.0
  Cl  Cl2948  1  0.00108750  0.31141250  0.12608750  1.0
  Cl  Cl2949  1  0.00108750  0.31141250  0.37608750  1.0
  Cl  Cl2950  1  0.00108750  0.31141250  0.62608750  1.0
  Cl  Cl2951  1  0.00108750  0.31141250  0.87608750  1.0
  Cl  Cl2952  1  0.00108750  0.56141250  0.12608750  1.0
  Cl  Cl2953  1  0.00108750  0.56141250  0.37608750  1.0
  Cl  Cl2954  1  0.00108750  0.56141250  0.62608750  1.0
  Cl  Cl2955  1  0.00108750  0.56141250  0.87608750  1.0
  Cl  Cl2956  1  0.00108750  0.81141250  0.12608750  1.0
  Cl  Cl2957  1  0.00108750  0.81141250  0.37608750  1.0
  Cl  Cl2958  1  0.00108750  0.81141250  0.62608750  1.0
  Cl  Cl2959  1  0.00108750  0.81141250  0.87608750  1.0
  Cl  Cl2960  1  0.25108750  0.06141250  0.12608750  1.0
  Cl  Cl2961  1  0.25108750  0.06141250  0.37608750  1.0
  Cl  Cl2962  1  0.25108750  0.06141250  0.62608750  1.0
  Cl  Cl2963  1  0.25108750  0.06141250  0.87608750  1.0
  Cl  Cl2964  1  0.25108750  0.31141250  0.12608750  1.0
  Cl  Cl2965  1  0.25108750  0.31141250  0.37608750  1.0
  Cl  Cl2966  1  0.25108750  0.31141250  0.62608750  1.0
  Cl  Cl2967  1  0.25108750  0.31141250  0.87608750  1.0
  Cl  Cl2968  1  0.25108750  0.56141250  0.12608750  1.0
  Cl  Cl2969  1  0.25108750  0.56141250  0.37608750  1.0
  Cl  Cl2970  1  0.25108750  0.56141250  0.62608750  1.0
  Cl  Cl2971  1  0.25108750  0.56141250  0.87608750  1.0
  Cl  Cl2972  1  0.25108750  0.81141250  0.12608750  1.0
  Cl  Cl2973  1  0.25108750  0.81141250  0.37608750  1.0
  Cl  Cl2974  1  0.25108750  0.81141250  0.62608750  1.0
  Cl  Cl2975  1  0.25108750  0.81141250  0.87608750  1.0
  Cl  Cl2976  1  0.50108750  0.06141250  0.12608750  1.0
  Cl  Cl2977  1  0.50108750  0.06141250  0.37608750  1.0
  Cl  Cl2978  1  0.50108750  0.06141250  0.62608750  1.0
  Cl  Cl2979  1  0.50108750  0.06141250  0.87608750  1.0
  Cl  Cl2980  1  0.50108750  0.31141250  0.12608750  1.0
  Cl  Cl2981  1  0.50108750  0.31141250  0.37608750  1.0
  Cl  Cl2982  1  0.50108750  0.31141250  0.62608750  1.0
  Cl  Cl2983  1  0.50108750  0.31141250  0.87608750  1.0
  Cl  Cl2984  1  0.50108750  0.56141250  0.12608750  1.0
  Cl  Cl2985  1  0.50108750  0.56141250  0.37608750  1.0
  Cl  Cl2986  1  0.50108750  0.56141250  0.62608750  1.0
  Cl  Cl2987  1  0.50108750  0.56141250  0.87608750  1.0
  Cl  Cl2988  1  0.50108750  0.81141250  0.12608750  1.0
  Cl  Cl2989  1  0.50108750  0.81141250  0.37608750  1.0
  Cl  Cl2990  1  0.50108750  0.81141250  0.62608750  1.0
  Cl  Cl2991  1  0.50108750  0.81141250  0.87608750  1.0
  Cl  Cl2992  1  0.75108750  0.06141250  0.12608750  1.0
  Cl  Cl2993  1  0.75108750  0.06141250  0.37608750  1.0
  Cl  Cl2994  1  0.75108750  0.06141250  0.62608750  1.0
  Cl  Cl2995  1  0.75108750  0.06141250  0.87608750  1.0
  Cl  Cl2996  1  0.75108750  0.31141250  0.12608750  1.0
  Cl  Cl2997  1  0.75108750  0.31141250  0.37608750  1.0
  Cl  Cl2998  1  0.75108750  0.31141250  0.62608750  1.0
  Cl  Cl2999  1  0.75108750  0.31141250  0.87608750  1.0
  Cl  Cl3000  1  0.75108750  0.56141250  0.12608750  1.0
  Cl  Cl3001  1  0.75108750  0.56141250  0.37608750  1.0
  Cl  Cl3002  1  0.75108750  0.56141250  0.62608750  1.0
  Cl  Cl3003  1  0.75108750  0.56141250  0.87608750  1.0
  Cl  Cl3004  1  0.75108750  0.81141250  0.12608750  1.0
  Cl  Cl3005  1  0.75108750  0.81141250  0.37608750  1.0
  Cl  Cl3006  1  0.75108750  0.81141250  0.62608750  1.0
  Cl  Cl3007  1  0.75108750  0.81141250  0.87608750  1.0
  Cl  Cl3008  1  0.12391250  0.18858750  0.24891250  1.0
  Cl  Cl3009  1  0.12391250  0.18858750  0.49891250  1.0
  Cl  Cl3010  1  0.12391250  0.18858750  0.74891250  1.0
  Cl  Cl3011  1  0.12391250  0.18858750  0.99891250  1.0
  Cl  Cl3012  1  0.12391250  0.43858750  0.24891250  1.0
  Cl  Cl3013  1  0.12391250  0.43858750  0.49891250  1.0
  Cl  Cl3014  1  0.12391250  0.43858750  0.74891250  1.0
  Cl  Cl3015  1  0.12391250  0.43858750  0.99891250  1.0
  Cl  Cl3016  1  0.12391250  0.68858750  0.24891250  1.0
  Cl  Cl3017  1  0.12391250  0.68858750  0.49891250  1.0
  Cl  Cl3018  1  0.12391250  0.68858750  0.74891250  1.0
  Cl  Cl3019  1  0.12391250  0.68858750  0.99891250  1.0
  Cl  Cl3020  1  0.12391250  0.93858750  0.24891250  1.0
  Cl  Cl3021  1  0.12391250  0.93858750  0.49891250  1.0
  Cl  Cl3022  1  0.12391250  0.93858750  0.74891250  1.0
  Cl  Cl3023  1  0.12391250  0.93858750  0.99891250  1.0
  Cl  Cl3024  1  0.37391250  0.18858750  0.24891250  1.0
  Cl  Cl3025  1  0.37391250  0.18858750  0.49891250  1.0
  Cl  Cl3026  1  0.37391250  0.18858750  0.74891250  1.0
  Cl  Cl3027  1  0.37391250  0.18858750  0.99891250  1.0
  Cl  Cl3028  1  0.37391250  0.43858750  0.24891250  1.0
  Cl  Cl3029  1  0.37391250  0.43858750  0.49891250  1.0
  Cl  Cl3030  1  0.37391250  0.43858750  0.74891250  1.0
  Cl  Cl3031  1  0.37391250  0.43858750  0.99891250  1.0
  Cl  Cl3032  1  0.37391250  0.68858750  0.24891250  1.0
  Cl  Cl3033  1  0.37391250  0.68858750  0.49891250  1.0
  Cl  Cl3034  1  0.37391250  0.68858750  0.74891250  1.0
  Cl  Cl3035  1  0.37391250  0.68858750  0.99891250  1.0
  Cl  Cl3036  1  0.37391250  0.93858750  0.24891250  1.0
  Cl  Cl3037  1  0.37391250  0.93858750  0.49891250  1.0
  Cl  Cl3038  1  0.37391250  0.93858750  0.74891250  1.0
  Cl  Cl3039  1  0.37391250  0.93858750  0.99891250  1.0
  Cl  Cl3040  1  0.62391250  0.18858750  0.24891250  1.0
  Cl  Cl3041  1  0.62391250  0.18858750  0.49891250  1.0
  Cl  Cl3042  1  0.62391250  0.18858750  0.74891250  1.0
  Cl  Cl3043  1  0.62391250  0.18858750  0.99891250  1.0
  Cl  Cl3044  1  0.62391250  0.43858750  0.24891250  1.0
  Cl  Cl3045  1  0.62391250  0.43858750  0.49891250  1.0
  Cl  Cl3046  1  0.62391250  0.43858750  0.74891250  1.0
  Cl  Cl3047  1  0.62391250  0.43858750  0.99891250  1.0
  Cl  Cl3048  1  0.62391250  0.68858750  0.24891250  1.0
  Cl  Cl3049  1  0.62391250  0.68858750  0.49891250  1.0
  Cl  Cl3050  1  0.62391250  0.68858750  0.74891250  1.0
  Cl  Cl3051  1  0.62391250  0.68858750  0.99891250  1.0
  Cl  Cl3052  1  0.62391250  0.93858750  0.24891250  1.0
  Cl  Cl3053  1  0.62391250  0.93858750  0.49891250  1.0
  Cl  Cl3054  1  0.62391250  0.93858750  0.74891250  1.0
  Cl  Cl3055  1  0.62391250  0.93858750  0.99891250  1.0
  Cl  Cl3056  1  0.87391250  0.18858750  0.24891250  1.0
  Cl  Cl3057  1  0.87391250  0.18858750  0.49891250  1.0
  Cl  Cl3058  1  0.87391250  0.18858750  0.74891250  1.0
  Cl  Cl3059  1  0.87391250  0.18858750  0.99891250  1.0
  Cl  Cl3060  1  0.87391250  0.43858750  0.24891250  1.0
  Cl  Cl3061  1  0.87391250  0.43858750  0.49891250  1.0
  Cl  Cl3062  1  0.87391250  0.43858750  0.74891250  1.0
  Cl  Cl3063  1  0.87391250  0.43858750  0.99891250  1.0
  Cl  Cl3064  1  0.87391250  0.68858750  0.24891250  1.0
  Cl  Cl3065  1  0.87391250  0.68858750  0.49891250  1.0
  Cl  Cl3066  1  0.87391250  0.68858750  0.74891250  1.0
  Cl  Cl3067  1  0.87391250  0.68858750  0.99891250  1.0
  Cl  Cl3068  1  0.87391250  0.93858750  0.24891250  1.0
  Cl  Cl3069  1  0.87391250  0.93858750  0.49891250  1.0
  Cl  Cl3070  1  0.87391250  0.93858750  0.74891250  1.0
  Cl  Cl3071  1  0.87391250  0.93858750  0.99891250  1.0
  Cl  Cl3072  1  0.12608750  0.06141250  0.00108750  1.0
  Cl  Cl3073  1  0.12608750  0.06141250  0.25108750  1.0
  Cl  Cl3074  1  0.12608750  0.06141250  0.50108750  1.0
  Cl  Cl3075  1  0.12608750  0.06141250  0.75108750  1.0
  Cl  Cl3076  1  0.12608750  0.31141250  0.00108750  1.0
  Cl  Cl3077  1  0.12608750  0.31141250  0.25108750  1.0
  Cl  Cl3078  1  0.12608750  0.31141250  0.50108750  1.0
  Cl  Cl3079  1  0.12608750  0.31141250  0.75108750  1.0
  Cl  Cl3080  1  0.12608750  0.56141250  0.00108750  1.0
  Cl  Cl3081  1  0.12608750  0.56141250  0.25108750  1.0
  Cl  Cl3082  1  0.12608750  0.56141250  0.50108750  1.0
  Cl  Cl3083  1  0.12608750  0.56141250  0.75108750  1.0
  Cl  Cl3084  1  0.12608750  0.81141250  0.00108750  1.0
  Cl  Cl3085  1  0.12608750  0.81141250  0.25108750  1.0
  Cl  Cl3086  1  0.12608750  0.81141250  0.50108750  1.0
  Cl  Cl3087  1  0.12608750  0.81141250  0.75108750  1.0
  Cl  Cl3088  1  0.37608750  0.06141250  0.00108750  1.0
  Cl  Cl3089  1  0.37608750  0.06141250  0.25108750  1.0
  Cl  Cl3090  1  0.37608750  0.06141250  0.50108750  1.0
  Cl  Cl3091  1  0.37608750  0.06141250  0.75108750  1.0
  Cl  Cl3092  1  0.37608750  0.31141250  0.00108750  1.0
  Cl  Cl3093  1  0.37608750  0.31141250  0.25108750  1.0
  Cl  Cl3094  1  0.37608750  0.31141250  0.50108750  1.0
  Cl  Cl3095  1  0.37608750  0.31141250  0.75108750  1.0
  Cl  Cl3096  1  0.37608750  0.56141250  0.00108750  1.0
  Cl  Cl3097  1  0.37608750  0.56141250  0.25108750  1.0
  Cl  Cl3098  1  0.37608750  0.56141250  0.50108750  1.0
  Cl  Cl3099  1  0.37608750  0.56141250  0.75108750  1.0
  Cl  Cl3100  1  0.37608750  0.81141250  0.00108750  1.0
  Cl  Cl3101  1  0.37608750  0.81141250  0.25108750  1.0
  Cl  Cl3102  1  0.37608750  0.81141250  0.50108750  1.0
  Cl  Cl3103  1  0.37608750  0.81141250  0.75108750  1.0
  Cl  Cl3104  1  0.62608750  0.06141250  0.00108750  1.0
  Cl  Cl3105  1  0.62608750  0.06141250  0.25108750  1.0
  Cl  Cl3106  1  0.62608750  0.06141250  0.50108750  1.0
  Cl  Cl3107  1  0.62608750  0.06141250  0.75108750  1.0
  Cl  Cl3108  1  0.62608750  0.31141250  0.00108750  1.0
  Cl  Cl3109  1  0.62608750  0.31141250  0.25108750  1.0
  Cl  Cl3110  1  0.62608750  0.31141250  0.50108750  1.0
  Cl  Cl3111  1  0.62608750  0.31141250  0.75108750  1.0
  Cl  Cl3112  1  0.62608750  0.56141250  0.00108750  1.0
  Cl  Cl3113  1  0.62608750  0.56141250  0.25108750  1.0
  Cl  Cl3114  1  0.62608750  0.56141250  0.50108750  1.0
  Cl  Cl3115  1  0.62608750  0.56141250  0.75108750  1.0
  Cl  Cl3116  1  0.62608750  0.81141250  0.00108750  1.0
  Cl  Cl3117  1  0.62608750  0.81141250  0.25108750  1.0
  Cl  Cl3118  1  0.62608750  0.81141250  0.50108750  1.0
  Cl  Cl3119  1  0.62608750  0.81141250  0.75108750  1.0
  Cl  Cl3120  1  0.87608750  0.06141250  0.00108750  1.0
  Cl  Cl3121  1  0.87608750  0.06141250  0.25108750  1.0
  Cl  Cl3122  1  0.87608750  0.06141250  0.50108750  1.0
  Cl  Cl3123  1  0.87608750  0.06141250  0.75108750  1.0
  Cl  Cl3124  1  0.87608750  0.31141250  0.00108750  1.0
  Cl  Cl3125  1  0.87608750  0.31141250  0.25108750  1.0
  Cl  Cl3126  1  0.87608750  0.31141250  0.50108750  1.0
  Cl  Cl3127  1  0.87608750  0.31141250  0.75108750  1.0
  Cl  Cl3128  1  0.87608750  0.56141250  0.00108750  1.0
  Cl  Cl3129  1  0.87608750  0.56141250  0.25108750  1.0
  Cl  Cl3130  1  0.87608750  0.56141250  0.50108750  1.0
  Cl  Cl3131  1  0.87608750  0.56141250  0.75108750  1.0
  Cl  Cl3132  1  0.87608750  0.81141250  0.00108750  1.0
  Cl  Cl3133  1  0.87608750  0.81141250  0.25108750  1.0
  Cl  Cl3134  1  0.87608750  0.81141250  0.50108750  1.0
  Cl  Cl3135  1  0.87608750  0.81141250  0.75108750  1.0
  Cl  Cl3136  1  0.24891250  0.18858750  0.12391250  1.0
  Cl  Cl3137  1  0.24891250  0.18858750  0.37391250  1.0
  Cl  Cl3138  1  0.24891250  0.18858750  0.62391250  1.0
  Cl  Cl3139  1  0.24891250  0.18858750  0.87391250  1.0
  Cl  Cl3140  1  0.24891250  0.43858750  0.12391250  1.0
  Cl  Cl3141  1  0.24891250  0.43858750  0.37391250  1.0
  Cl  Cl3142  1  0.24891250  0.43858750  0.62391250  1.0
  Cl  Cl3143  1  0.24891250  0.43858750  0.87391250  1.0
  Cl  Cl3144  1  0.24891250  0.68858750  0.12391250  1.0
  Cl  Cl3145  1  0.24891250  0.68858750  0.37391250  1.0
  Cl  Cl3146  1  0.24891250  0.68858750  0.62391250  1.0
  Cl  Cl3147  1  0.24891250  0.68858750  0.87391250  1.0
  Cl  Cl3148  1  0.24891250  0.93858750  0.12391250  1.0
  Cl  Cl3149  1  0.24891250  0.93858750  0.37391250  1.0
  Cl  Cl3150  1  0.24891250  0.93858750  0.62391250  1.0
  Cl  Cl3151  1  0.24891250  0.93858750  0.87391250  1.0
  Cl  Cl3152  1  0.49891250  0.18858750  0.12391250  1.0
  Cl  Cl3153  1  0.49891250  0.18858750  0.37391250  1.0
  Cl  Cl3154  1  0.49891250  0.18858750  0.62391250  1.0
  Cl  Cl3155  1  0.49891250  0.18858750  0.87391250  1.0
  Cl  Cl3156  1  0.49891250  0.43858750  0.12391250  1.0
  Cl  Cl3157  1  0.49891250  0.43858750  0.37391250  1.0
  Cl  Cl3158  1  0.49891250  0.43858750  0.62391250  1.0
  Cl  Cl3159  1  0.49891250  0.43858750  0.87391250  1.0
  Cl  Cl3160  1  0.49891250  0.68858750  0.12391250  1.0
  Cl  Cl3161  1  0.49891250  0.68858750  0.37391250  1.0
  Cl  Cl3162  1  0.49891250  0.68858750  0.62391250  1.0
  Cl  Cl3163  1  0.49891250  0.68858750  0.87391250  1.0
  Cl  Cl3164  1  0.49891250  0.93858750  0.12391250  1.0
  Cl  Cl3165  1  0.49891250  0.93858750  0.37391250  1.0
  Cl  Cl3166  1  0.49891250  0.93858750  0.62391250  1.0
  Cl  Cl3167  1  0.49891250  0.93858750  0.87391250  1.0
  Cl  Cl3168  1  0.74891250  0.18858750  0.12391250  1.0
  Cl  Cl3169  1  0.74891250  0.18858750  0.37391250  1.0
  Cl  Cl3170  1  0.74891250  0.18858750  0.62391250  1.0
  Cl  Cl3171  1  0.74891250  0.18858750  0.87391250  1.0
  Cl  Cl3172  1  0.74891250  0.43858750  0.12391250  1.0
  Cl  Cl3173  1  0.74891250  0.43858750  0.37391250  1.0
  Cl  Cl3174  1  0.74891250  0.43858750  0.62391250  1.0
  Cl  Cl3175  1  0.74891250  0.43858750  0.87391250  1.0
  Cl  Cl3176  1  0.74891250  0.68858750  0.12391250  1.0
  Cl  Cl3177  1  0.74891250  0.68858750  0.37391250  1.0
  Cl  Cl3178  1  0.74891250  0.68858750  0.62391250  1.0
  Cl  Cl3179  1  0.74891250  0.68858750  0.87391250  1.0
  Cl  Cl3180  1  0.74891250  0.93858750  0.12391250  1.0
  Cl  Cl3181  1  0.74891250  0.93858750  0.37391250  1.0
  Cl  Cl3182  1  0.74891250  0.93858750  0.62391250  1.0
  Cl  Cl3183  1  0.74891250  0.93858750  0.87391250  1.0
  Cl  Cl3184  1  0.99891250  0.18858750  0.12391250  1.0
  Cl  Cl3185  1  0.99891250  0.18858750  0.37391250  1.0
  Cl  Cl3186  1  0.99891250  0.18858750  0.62391250  1.0
  Cl  Cl3187  1  0.99891250  0.18858750  0.87391250  1.0
  Cl  Cl3188  1  0.99891250  0.43858750  0.12391250  1.0
  Cl  Cl3189  1  0.99891250  0.43858750  0.37391250  1.0
  Cl  Cl3190  1  0.99891250  0.43858750  0.62391250  1.0
  Cl  Cl3191  1  0.99891250  0.43858750  0.87391250  1.0
  Cl  Cl3192  1  0.99891250  0.68858750  0.12391250  1.0
  Cl  Cl3193  1  0.99891250  0.68858750  0.37391250  1.0
  Cl  Cl3194  1  0.99891250  0.68858750  0.62391250  1.0
  Cl  Cl3195  1  0.99891250  0.68858750  0.87391250  1.0
  Cl  Cl3196  1  0.99891250  0.93858750  0.12391250  1.0
  Cl  Cl3197  1  0.99891250  0.93858750  0.37391250  1.0
  Cl  Cl3198  1  0.99891250  0.93858750  0.62391250  1.0
  Cl  Cl3199  1  0.99891250  0.93858750  0.87391250  1.0
  Cl  Cl3200  1  0.18858750  0.06358750  0.18858750  1.0
  Cl  Cl3201  1  0.18858750  0.06358750  0.43858750  1.0
  Cl  Cl3202  1  0.18858750  0.06358750  0.68858750  1.0
  Cl  Cl3203  1  0.18858750  0.06358750  0.93858750  1.0
  Cl  Cl3204  1  0.18858750  0.31358750  0.18858750  1.0
  Cl  Cl3205  1  0.18858750  0.31358750  0.43858750  1.0
  Cl  Cl3206  1  0.18858750  0.31358750  0.68858750  1.0
  Cl  Cl3207  1  0.18858750  0.31358750  0.93858750  1.0
  Cl  Cl3208  1  0.18858750  0.56358750  0.18858750  1.0
  Cl  Cl3209  1  0.18858750  0.56358750  0.43858750  1.0
  Cl  Cl3210  1  0.18858750  0.56358750  0.68858750  1.0
  Cl  Cl3211  1  0.18858750  0.56358750  0.93858750  1.0
  Cl  Cl3212  1  0.18858750  0.81358750  0.18858750  1.0
  Cl  Cl3213  1  0.18858750  0.81358750  0.43858750  1.0
  Cl  Cl3214  1  0.18858750  0.81358750  0.68858750  1.0
  Cl  Cl3215  1  0.18858750  0.81358750  0.93858750  1.0
  Cl  Cl3216  1  0.43858750  0.06358750  0.18858750  1.0
  Cl  Cl3217  1  0.43858750  0.06358750  0.43858750  1.0
  Cl  Cl3218  1  0.43858750  0.06358750  0.68858750  1.0
  Cl  Cl3219  1  0.43858750  0.06358750  0.93858750  1.0
  Cl  Cl3220  1  0.43858750  0.31358750  0.18858750  1.0
  Cl  Cl3221  1  0.43858750  0.31358750  0.43858750  1.0
  Cl  Cl3222  1  0.43858750  0.31358750  0.68858750  1.0
  Cl  Cl3223  1  0.43858750  0.31358750  0.93858750  1.0
  Cl  Cl3224  1  0.43858750  0.56358750  0.18858750  1.0
  Cl  Cl3225  1  0.43858750  0.56358750  0.43858750  1.0
  Cl  Cl3226  1  0.43858750  0.56358750  0.68858750  1.0
  Cl  Cl3227  1  0.43858750  0.56358750  0.93858750  1.0
  Cl  Cl3228  1  0.43858750  0.81358750  0.18858750  1.0
  Cl  Cl3229  1  0.43858750  0.81358750  0.43858750  1.0
  Cl  Cl3230  1  0.43858750  0.81358750  0.68858750  1.0
  Cl  Cl3231  1  0.43858750  0.81358750  0.93858750  1.0
  Cl  Cl3232  1  0.68858750  0.06358750  0.18858750  1.0
  Cl  Cl3233  1  0.68858750  0.06358750  0.43858750  1.0
  Cl  Cl3234  1  0.68858750  0.06358750  0.68858750  1.0
  Cl  Cl3235  1  0.68858750  0.06358750  0.93858750  1.0
  Cl  Cl3236  1  0.68858750  0.31358750  0.18858750  1.0
  Cl  Cl3237  1  0.68858750  0.31358750  0.43858750  1.0
  Cl  Cl3238  1  0.68858750  0.31358750  0.68858750  1.0
  Cl  Cl3239  1  0.68858750  0.31358750  0.93858750  1.0
  Cl  Cl3240  1  0.68858750  0.56358750  0.18858750  1.0
  Cl  Cl3241  1  0.68858750  0.56358750  0.43858750  1.0
  Cl  Cl3242  1  0.68858750  0.56358750  0.68858750  1.0
  Cl  Cl3243  1  0.68858750  0.56358750  0.93858750  1.0
  Cl  Cl3244  1  0.68858750  0.81358750  0.18858750  1.0
  Cl  Cl3245  1  0.68858750  0.81358750  0.43858750  1.0
  Cl  Cl3246  1  0.68858750  0.81358750  0.68858750  1.0
  Cl  Cl3247  1  0.68858750  0.81358750  0.93858750  1.0
  Cl  Cl3248  1  0.93858750  0.06358750  0.18858750  1.0
  Cl  Cl3249  1  0.93858750  0.06358750  0.43858750  1.0
  Cl  Cl3250  1  0.93858750  0.06358750  0.68858750  1.0
  Cl  Cl3251  1  0.93858750  0.06358750  0.93858750  1.0
  Cl  Cl3252  1  0.93858750  0.31358750  0.18858750  1.0
  Cl  Cl3253  1  0.93858750  0.31358750  0.43858750  1.0
  Cl  Cl3254  1  0.93858750  0.31358750  0.68858750  1.0
  Cl  Cl3255  1  0.93858750  0.31358750  0.93858750  1.0
  Cl  Cl3256  1  0.93858750  0.56358750  0.18858750  1.0
  Cl  Cl3257  1  0.93858750  0.56358750  0.43858750  1.0
  Cl  Cl3258  1  0.93858750  0.56358750  0.68858750  1.0
  Cl  Cl3259  1  0.93858750  0.56358750  0.93858750  1.0
  Cl  Cl3260  1  0.93858750  0.81358750  0.18858750  1.0
  Cl  Cl3261  1  0.93858750  0.81358750  0.43858750  1.0
  Cl  Cl3262  1  0.93858750  0.81358750  0.68858750  1.0
  Cl  Cl3263  1  0.93858750  0.81358750  0.93858750  1.0
  Cl  Cl3264  1  0.06141250  0.18641250  0.06141250  1.0
  Cl  Cl3265  1  0.06141250  0.18641250  0.31141250  1.0
  Cl  Cl3266  1  0.06141250  0.18641250  0.56141250  1.0
  Cl  Cl3267  1  0.06141250  0.18641250  0.81141250  1.0
  Cl  Cl3268  1  0.06141250  0.43641250  0.06141250  1.0
  Cl  Cl3269  1  0.06141250  0.43641250  0.31141250  1.0
  Cl  Cl3270  1  0.06141250  0.43641250  0.56141250  1.0
  Cl  Cl3271  1  0.06141250  0.43641250  0.81141250  1.0
  Cl  Cl3272  1  0.06141250  0.68641250  0.06141250  1.0
  Cl  Cl3273  1  0.06141250  0.68641250  0.31141250  1.0
  Cl  Cl3274  1  0.06141250  0.68641250  0.56141250  1.0
  Cl  Cl3275  1  0.06141250  0.68641250  0.81141250  1.0
  Cl  Cl3276  1  0.06141250  0.93641250  0.06141250  1.0
  Cl  Cl3277  1  0.06141250  0.93641250  0.31141250  1.0
  Cl  Cl3278  1  0.06141250  0.93641250  0.56141250  1.0
  Cl  Cl3279  1  0.06141250  0.93641250  0.81141250  1.0
  Cl  Cl3280  1  0.31141250  0.18641250  0.06141250  1.0
  Cl  Cl3281  1  0.31141250  0.18641250  0.31141250  1.0
  Cl  Cl3282  1  0.31141250  0.18641250  0.56141250  1.0
  Cl  Cl3283  1  0.31141250  0.18641250  0.81141250  1.0
  Cl  Cl3284  1  0.31141250  0.43641250  0.06141250  1.0
  Cl  Cl3285  1  0.31141250  0.43641250  0.31141250  1.0
  Cl  Cl3286  1  0.31141250  0.43641250  0.56141250  1.0
  Cl  Cl3287  1  0.31141250  0.43641250  0.81141250  1.0
  Cl  Cl3288  1  0.31141250  0.68641250  0.06141250  1.0
  Cl  Cl3289  1  0.31141250  0.68641250  0.31141250  1.0
  Cl  Cl3290  1  0.31141250  0.68641250  0.56141250  1.0
  Cl  Cl3291  1  0.31141250  0.68641250  0.81141250  1.0
  Cl  Cl3292  1  0.31141250  0.93641250  0.06141250  1.0
  Cl  Cl3293  1  0.31141250  0.93641250  0.31141250  1.0
  Cl  Cl3294  1  0.31141250  0.93641250  0.56141250  1.0
  Cl  Cl3295  1  0.31141250  0.93641250  0.81141250  1.0
  Cl  Cl3296  1  0.56141250  0.18641250  0.06141250  1.0
  Cl  Cl3297  1  0.56141250  0.18641250  0.31141250  1.0
  Cl  Cl3298  1  0.56141250  0.18641250  0.56141250  1.0
  Cl  Cl3299  1  0.56141250  0.18641250  0.81141250  1.0
  Cl  Cl3300  1  0.56141250  0.43641250  0.06141250  1.0
  Cl  Cl3301  1  0.56141250  0.43641250  0.31141250  1.0
  Cl  Cl3302  1  0.56141250  0.43641250  0.56141250  1.0
  Cl  Cl3303  1  0.56141250  0.43641250  0.81141250  1.0
  Cl  Cl3304  1  0.56141250  0.68641250  0.06141250  1.0
  Cl  Cl3305  1  0.56141250  0.68641250  0.31141250  1.0
  Cl  Cl3306  1  0.56141250  0.68641250  0.56141250  1.0
  Cl  Cl3307  1  0.56141250  0.68641250  0.81141250  1.0
  Cl  Cl3308  1  0.56141250  0.93641250  0.06141250  1.0
  Cl  Cl3309  1  0.56141250  0.93641250  0.31141250  1.0
  Cl  Cl3310  1  0.56141250  0.93641250  0.56141250  1.0
  Cl  Cl3311  1  0.56141250  0.93641250  0.81141250  1.0
  Cl  Cl3312  1  0.81141250  0.18641250  0.06141250  1.0
  Cl  Cl3313  1  0.81141250  0.18641250  0.31141250  1.0
  Cl  Cl3314  1  0.81141250  0.18641250  0.56141250  1.0
  Cl  Cl3315  1  0.81141250  0.18641250  0.81141250  1.0
  Cl  Cl3316  1  0.81141250  0.43641250  0.06141250  1.0
  Cl  Cl3317  1  0.81141250  0.43641250  0.31141250  1.0
  Cl  Cl3318  1  0.81141250  0.43641250  0.56141250  1.0
  Cl  Cl3319  1  0.81141250  0.43641250  0.81141250  1.0
  Cl  Cl3320  1  0.81141250  0.68641250  0.06141250  1.0
  Cl  Cl3321  1  0.81141250  0.68641250  0.31141250  1.0
  Cl  Cl3322  1  0.81141250  0.68641250  0.56141250  1.0
  Cl  Cl3323  1  0.81141250  0.68641250  0.81141250  1.0
  Cl  Cl3324  1  0.81141250  0.93641250  0.06141250  1.0
  Cl  Cl3325  1  0.81141250  0.93641250  0.31141250  1.0
  Cl  Cl3326  1  0.81141250  0.93641250  0.56141250  1.0
  Cl  Cl3327  1  0.81141250  0.93641250  0.81141250  1.0
  Cl  Cl3328  1  0.18858750  0.18858750  0.06358750  1.0
  Cl  Cl3329  1  0.18858750  0.18858750  0.31358750  1.0
  Cl  Cl3330  1  0.18858750  0.18858750  0.56358750  1.0
  Cl  Cl3331  1  0.18858750  0.18858750  0.81358750  1.0
  Cl  Cl3332  1  0.18858750  0.43858750  0.06358750  1.0
  Cl  Cl3333  1  0.18858750  0.43858750  0.31358750  1.0
  Cl  Cl3334  1  0.18858750  0.43858750  0.56358750  1.0
  Cl  Cl3335  1  0.18858750  0.43858750  0.81358750  1.0
  Cl  Cl3336  1  0.18858750  0.68858750  0.06358750  1.0
  Cl  Cl3337  1  0.18858750  0.68858750  0.31358750  1.0
  Cl  Cl3338  1  0.18858750  0.68858750  0.56358750  1.0
  Cl  Cl3339  1  0.18858750  0.68858750  0.81358750  1.0
  Cl  Cl3340  1  0.18858750  0.93858750  0.06358750  1.0
  Cl  Cl3341  1  0.18858750  0.93858750  0.31358750  1.0
  Cl  Cl3342  1  0.18858750  0.93858750  0.56358750  1.0
  Cl  Cl3343  1  0.18858750  0.93858750  0.81358750  1.0
  Cl  Cl3344  1  0.43858750  0.18858750  0.06358750  1.0
  Cl  Cl3345  1  0.43858750  0.18858750  0.31358750  1.0
  Cl  Cl3346  1  0.43858750  0.18858750  0.56358750  1.0
  Cl  Cl3347  1  0.43858750  0.18858750  0.81358750  1.0
  Cl  Cl3348  1  0.43858750  0.43858750  0.06358750  1.0
  Cl  Cl3349  1  0.43858750  0.43858750  0.31358750  1.0
  Cl  Cl3350  1  0.43858750  0.43858750  0.56358750  1.0
  Cl  Cl3351  1  0.43858750  0.43858750  0.81358750  1.0
  Cl  Cl3352  1  0.43858750  0.68858750  0.06358750  1.0
  Cl  Cl3353  1  0.43858750  0.68858750  0.31358750  1.0
  Cl  Cl3354  1  0.43858750  0.68858750  0.56358750  1.0
  Cl  Cl3355  1  0.43858750  0.68858750  0.81358750  1.0
  Cl  Cl3356  1  0.43858750  0.93858750  0.06358750  1.0
  Cl  Cl3357  1  0.43858750  0.93858750  0.31358750  1.0
  Cl  Cl3358  1  0.43858750  0.93858750  0.56358750  1.0
  Cl  Cl3359  1  0.43858750  0.93858750  0.81358750  1.0
  Cl  Cl3360  1  0.68858750  0.18858750  0.06358750  1.0
  Cl  Cl3361  1  0.68858750  0.18858750  0.31358750  1.0
  Cl  Cl3362  1  0.68858750  0.18858750  0.56358750  1.0
  Cl  Cl3363  1  0.68858750  0.18858750  0.81358750  1.0
  Cl  Cl3364  1  0.68858750  0.43858750  0.06358750  1.0
  Cl  Cl3365  1  0.68858750  0.43858750  0.31358750  1.0
  Cl  Cl3366  1  0.68858750  0.43858750  0.56358750  1.0
  Cl  Cl3367  1  0.68858750  0.43858750  0.81358750  1.0
  Cl  Cl3368  1  0.68858750  0.68858750  0.06358750  1.0
  Cl  Cl3369  1  0.68858750  0.68858750  0.31358750  1.0
  Cl  Cl3370  1  0.68858750  0.68858750  0.56358750  1.0
  Cl  Cl3371  1  0.68858750  0.68858750  0.81358750  1.0
  Cl  Cl3372  1  0.68858750  0.93858750  0.06358750  1.0
  Cl  Cl3373  1  0.68858750  0.93858750  0.31358750  1.0
  Cl  Cl3374  1  0.68858750  0.93858750  0.56358750  1.0
  Cl  Cl3375  1  0.68858750  0.93858750  0.81358750  1.0
  Cl  Cl3376  1  0.93858750  0.18858750  0.06358750  1.0
  Cl  Cl3377  1  0.93858750  0.18858750  0.31358750  1.0
  Cl  Cl3378  1  0.93858750  0.18858750  0.56358750  1.0
  Cl  Cl3379  1  0.93858750  0.18858750  0.81358750  1.0
  Cl  Cl3380  1  0.93858750  0.43858750  0.06358750  1.0
  Cl  Cl3381  1  0.93858750  0.43858750  0.31358750  1.0
  Cl  Cl3382  1  0.93858750  0.43858750  0.56358750  1.0
  Cl  Cl3383  1  0.93858750  0.43858750  0.81358750  1.0
  Cl  Cl3384  1  0.93858750  0.68858750  0.06358750  1.0
  Cl  Cl3385  1  0.93858750  0.68858750  0.31358750  1.0
  Cl  Cl3386  1  0.93858750  0.68858750  0.56358750  1.0
  Cl  Cl3387  1  0.93858750  0.68858750  0.81358750  1.0
  Cl  Cl3388  1  0.93858750  0.93858750  0.06358750  1.0
  Cl  Cl3389  1  0.93858750  0.93858750  0.31358750  1.0
  Cl  Cl3390  1  0.93858750  0.93858750  0.56358750  1.0
  Cl  Cl3391  1  0.93858750  0.93858750  0.81358750  1.0
  Cl  Cl3392  1  0.06141250  0.06141250  0.18641250  1.0
  Cl  Cl3393  1  0.06141250  0.06141250  0.43641250  1.0
  Cl  Cl3394  1  0.06141250  0.06141250  0.68641250  1.0
  Cl  Cl3395  1  0.06141250  0.06141250  0.93641250  1.0
  Cl  Cl3396  1  0.06141250  0.31141250  0.18641250  1.0
  Cl  Cl3397  1  0.06141250  0.31141250  0.43641250  1.0
  Cl  Cl3398  1  0.06141250  0.31141250  0.68641250  1.0
  Cl  Cl3399  1  0.06141250  0.31141250  0.93641250  1.0
  Cl  Cl3400  1  0.06141250  0.56141250  0.18641250  1.0
  Cl  Cl3401  1  0.06141250  0.56141250  0.43641250  1.0
  Cl  Cl3402  1  0.06141250  0.56141250  0.68641250  1.0
  Cl  Cl3403  1  0.06141250  0.56141250  0.93641250  1.0
  Cl  Cl3404  1  0.06141250  0.81141250  0.18641250  1.0
  Cl  Cl3405  1  0.06141250  0.81141250  0.43641250  1.0
  Cl  Cl3406  1  0.06141250  0.81141250  0.68641250  1.0
  Cl  Cl3407  1  0.06141250  0.81141250  0.93641250  1.0
  Cl  Cl3408  1  0.31141250  0.06141250  0.18641250  1.0
  Cl  Cl3409  1  0.31141250  0.06141250  0.43641250  1.0
  Cl  Cl3410  1  0.31141250  0.06141250  0.68641250  1.0
  Cl  Cl3411  1  0.31141250  0.06141250  0.93641250  1.0
  Cl  Cl3412  1  0.31141250  0.31141250  0.18641250  1.0
  Cl  Cl3413  1  0.31141250  0.31141250  0.43641250  1.0
  Cl  Cl3414  1  0.31141250  0.31141250  0.68641250  1.0
  Cl  Cl3415  1  0.31141250  0.31141250  0.93641250  1.0
  Cl  Cl3416  1  0.31141250  0.56141250  0.18641250  1.0
  Cl  Cl3417  1  0.31141250  0.56141250  0.43641250  1.0
  Cl  Cl3418  1  0.31141250  0.56141250  0.68641250  1.0
  Cl  Cl3419  1  0.31141250  0.56141250  0.93641250  1.0
  Cl  Cl3420  1  0.31141250  0.81141250  0.18641250  1.0
  Cl  Cl3421  1  0.31141250  0.81141250  0.43641250  1.0
  Cl  Cl3422  1  0.31141250  0.81141250  0.68641250  1.0
  Cl  Cl3423  1  0.31141250  0.81141250  0.93641250  1.0
  Cl  Cl3424  1  0.56141250  0.06141250  0.18641250  1.0
  Cl  Cl3425  1  0.56141250  0.06141250  0.43641250  1.0
  Cl  Cl3426  1  0.56141250  0.06141250  0.68641250  1.0
  Cl  Cl3427  1  0.56141250  0.06141250  0.93641250  1.0
  Cl  Cl3428  1  0.56141250  0.31141250  0.18641250  1.0
  Cl  Cl3429  1  0.56141250  0.31141250  0.43641250  1.0
  Cl  Cl3430  1  0.56141250  0.31141250  0.68641250  1.0
  Cl  Cl3431  1  0.56141250  0.31141250  0.93641250  1.0
  Cl  Cl3432  1  0.56141250  0.56141250  0.18641250  1.0
  Cl  Cl3433  1  0.56141250  0.56141250  0.43641250  1.0
  Cl  Cl3434  1  0.56141250  0.56141250  0.68641250  1.0
  Cl  Cl3435  1  0.56141250  0.56141250  0.93641250  1.0
  Cl  Cl3436  1  0.56141250  0.81141250  0.18641250  1.0
  Cl  Cl3437  1  0.56141250  0.81141250  0.43641250  1.0
  Cl  Cl3438  1  0.56141250  0.81141250  0.68641250  1.0
  Cl  Cl3439  1  0.56141250  0.81141250  0.93641250  1.0
  Cl  Cl3440  1  0.81141250  0.06141250  0.18641250  1.0
  Cl  Cl3441  1  0.81141250  0.06141250  0.43641250  1.0
  Cl  Cl3442  1  0.81141250  0.06141250  0.68641250  1.0
  Cl  Cl3443  1  0.81141250  0.06141250  0.93641250  1.0
  Cl  Cl3444  1  0.81141250  0.31141250  0.18641250  1.0
  Cl  Cl3445  1  0.81141250  0.31141250  0.43641250  1.0
  Cl  Cl3446  1  0.81141250  0.31141250  0.68641250  1.0
  Cl  Cl3447  1  0.81141250  0.31141250  0.93641250  1.0
  Cl  Cl3448  1  0.81141250  0.56141250  0.18641250  1.0
  Cl  Cl3449  1  0.81141250  0.56141250  0.43641250  1.0
  Cl  Cl3450  1  0.81141250  0.56141250  0.68641250  1.0
  Cl  Cl3451  1  0.81141250  0.56141250  0.93641250  1.0
  Cl  Cl3452  1  0.81141250  0.81141250  0.18641250  1.0
  Cl  Cl3453  1  0.81141250  0.81141250  0.43641250  1.0
  Cl  Cl3454  1  0.81141250  0.81141250  0.68641250  1.0
  Cl  Cl3455  1  0.81141250  0.81141250  0.93641250  1.0
