# CIF file generated by supercell program. See https://orex.github.io/supercell
# E_e = 0.0000000000 eV
data_
_chemical_name_common ''
_cell_length_a 10.4037
_cell_length_b 10.4037
_cell_length_c 10.4037
_cell_angle_alpha 90
_cell_angle_beta 90
_cell_angle_gamma 90
_space_group_IT_number 1
_space_group_name_H-M_alt 'P 1'
_space_group_name_Hall 'P 1'
loop_
    _space_group_symop_operation_xyz
    x,y,z
loop_
    _atom_site_label
    _atom_site_type_symbol
    _atom_site_fract_x
    _atom_site_fract_y
    _atom_site_fract_z
    _atom_site_occupancy
    Cl0     Cl   0.37500   0.12500   0.12500   1.000
    Cl0     Cl   0.12500   0.62500   0.37500   1.000
    Cl0     Cl   0.62500   0.37500   0.62500   1.000
    Cl0     Cl   0.87500   0.87500   0.87500   1.000
    Cl0     Cl   0.37500   0.87500   0.87500   1.000
    Cl0     Cl   0.12500   0.37500   0.62500   1.000
    Cl0     Cl   0.62500   0.62500   0.37500   1.000
    Cl0     Cl   0.87500   0.12500   0.12500   1.000
    Cl0     Cl   0.12500   0.37500   0.12500   1.000
    Cl0     Cl   0.37500   0.12500   0.62500   1.000
    Cl0     Cl   0.87500   0.37500   0.87500   1.000
    Cl0     Cl   0.62500   0.12500   0.37500   1.000
    Cl0     Cl   0.37500   0.62500   0.62500   1.000
    Cl0     Cl   0.12500   0.87500   0.12500   1.000
    Cl0     Cl   0.87500   0.37500   0.37500   1.000
    Cl0     Cl   0.12500   0.62500   0.87500   1.000
    Cl0     Cl   0.62500   0.87500   0.62500   1.000
    Cl0     Cl   0.12500   0.87500   0.62500   1.000
    Cl0     Cl   0.62500   0.62500   0.87500   1.000
    Cl0     Cl   0.37500   0.37500   0.37500   1.000
    Cl0     Cl   0.87500   0.12500   0.62500   1.000
    Cl0     Cl   0.37500   0.87500   0.37500   1.000
    Cl0     Cl   0.62500   0.12500   0.87500   1.000
    Cl0     Cl   0.87500   0.62500   0.62500   1.000
    Cl0     Cl   0.12500   0.12500   0.87500   1.000
    Cl0     Cl   0.62500   0.87500   0.12500   1.000
    Cl0     Cl   0.37500   0.62500   0.12500   1.000
    Cl0     Cl   0.87500   0.87500   0.37500   1.000
    Cl0     Cl   0.12500   0.12500   0.37500   1.000
    Cl0     Cl   0.62500   0.37500   0.12500   1.000
    Cl0     Cl   0.87500   0.62500   0.12500   1.000
    Cl0     Cl   0.37500   0.37500   0.87500   1.000
    Li0     Li   0.62500   0.62500   0.12500   1.000
    Li0     Li   0.62500   0.87500   0.37500   1.000
    Li0     Li   0.37500   0.87500   0.62500   1.000
    Li0     Li   0.37500   0.62500   0.87500   1.000
    Li0     Li   0.62500   0.37500   0.87500   1.000
    Li0     Li   0.62500   0.12500   0.62500   1.000
    Li0     Li   0.37500   0.12500   0.37500   1.000
    Sc0     Sc   0.37500   0.37500   0.12500   1.000
    Li0     Li   0.12500   0.62500   0.62500   1.000
    Sc0     Sc   0.87500   0.37500   0.62500   1.000
    Sc0     Sc   0.87500   0.62500   0.37500   1.000
    Li0     Li   0.12500   0.37500   0.37500   1.000
    Li0     Li   0.87500   0.87500   0.12500   1.000
    Sc0     Sc   0.87500   0.12500   0.87500   1.000
    Sc0     Sc   0.12500   0.87500   0.87500   1.000
    Sc0     Sc   0.12500   0.12500   0.12500   1.000
