# generated using pymatgen
data_Li6La11Sc5Cl32
_symmetry_space_group_name_H-M   'P 1'
_cell_length_a   31.21110000
_cell_length_b   31.21110000
_cell_length_c   31.21110000
_cell_angle_alpha   90.00000000
_cell_angle_beta   90.00000000
_cell_angle_gamma   90.00000000
_symmetry_Int_Tables_number   1
_chemical_formula_structural   Li6La11Sc5Cl32
_chemical_formula_sum   'Li162 La297 Sc135 Cl864'
_cell_volume   30403.75508582
_cell_formula_units_Z   27
loop_
 _symmetry_equiv_pos_site_id
 _symmetry_equiv_pos_as_xyz
  1  'x, y, z'
loop_
 _atom_site_type_symbol
 _atom_site_label
 _atom_site_symmetry_multiplicity
 _atom_site_fract_x
 _atom_site_fract_y
 _atom_site_fract_z
 _atom_site_occupancy
  Li  Li0  1  0.29166667  0.95833333  0.95833333  1
  Li  Li1  1  0.62500000  0.95833333  0.95833333  1
  Li  Li2  1  0.12500000  0.45833333  0.29166667  1
  Li  Li3  1  0.12500000  0.45833333  0.62500000  1
  Li  Li4  1  0.45833333  0.12500000  0.29166667  1
  Li  Li5  1  0.45833333  0.12500000  0.95833333  1
  Li  Li6  1  0.79166667  0.45833333  0.29166667  1
  Li  Li7  1  0.79166667  0.45833333  0.62500000  1
  Li  Li8  1  0.79166667  0.79166667  0.62500000  1
  Li  Li9  1  0.12500000  0.95833333  0.12500000  1
  Li  Li10  1  0.45833333  0.62500000  0.45833333  1
  Li  Li11  1  0.45833333  0.95833333  0.12500000  1
  Li  Li12  1  0.79166667  0.62500000  0.45833333  1
  Li  Li13  1  0.79166667  0.95833333  0.12500000  1
  Li  Li14  1  0.79166667  0.95833333  0.45833333  1
  Li  Li15  1  0.62500000  0.45833333  0.45833333  1
  Li  Li16  1  0.62500000  0.45833333  0.79166667  1
  Li  Li17  1  0.62500000  0.79166667  0.45833333  1
  Li  Li18  1  0.95833333  0.45833333  0.45833333  1
  Li  Li19  1  0.04166667  0.04166667  0.37500000  1
  Li  Li20  1  0.37500000  0.04166667  0.37500000  1
  Li  Li21  1  0.37500000  0.70833333  0.70833333  1
  Li  Li22  1  0.54166667  0.54166667  0.37500000  1
  Li  Li23  1  0.87500000  0.87500000  0.70833333  1
  Li  Li24  1  0.54166667  0.70833333  0.54166667  1
  Li  Li25  1  0.87500000  0.04166667  0.87500000  1
  Li  Li26  1  0.87500000  0.37500000  0.20833333  1
  Li  Li27  1  0.87500000  0.70833333  0.20833333  1
  Li  Li28  1  0.87500000  0.70833333  0.54166667  1
  Li  Li29  1  0.04166667  0.87500000  0.87500000  1
  Li  Li30  1  0.37500000  0.87500000  0.20833333  1
  Li  Li31  1  0.37500000  0.87500000  0.87500000  1
  Li  Li32  1  0.70833333  0.54166667  0.54166667  1
  Li  Li33  1  0.70833333  0.87500000  0.20833333  1
  Li  Li34  1  0.08333333  0.08333333  0.00000000  1
  Li  Li35  1  0.08333333  0.08333333  0.33333333  1
  Li  Li36  1  0.08333333  0.08333333  0.66666667  1
  Li  Li37  1  0.08333333  0.41666667  0.66666667  1
  Li  Li38  1  0.08333333  0.75000000  1.00000000  1
  Li  Li39  1  0.41666667  0.41666667  0.33333333  1
  Li  Li40  1  0.41666667  0.75000000  0.33333333  1
  Li  Li41  1  0.41666667  0.75000000  0.66666667  1
  Li  Li42  1  0.25000000  0.25000000  0.66666667  1
  Li  Li43  1  0.25000000  0.58333333  0.33333333  1
  Li  Li44  1  0.25000000  0.91666667  0.66666667  1
  Li  Li45  1  0.58333333  0.25000000  0.66666667  1
  Li  Li46  1  0.91666667  0.58333333  1.00000000  1
  Li  Li47  1  0.91666667  0.91666667  0.33333333  1
  Li  Li48  1  0.91666667  0.91666667  0.66666667  1
  Li  Li49  1  0.25000000  0.41666667  0.16666667  1
  Li  Li50  1  0.25000000  0.41666667  0.83333333  1
  Li  Li51  1  0.25000000  0.75000000  0.16666667  1
  Li  Li52  1  0.25000000  0.75000000  0.50000000  1
  Li  Li53  1  0.58333333  0.08333333  0.16666667  1
  Li  Li54  1  0.58333333  0.41666667  0.50000000  1
  Li  Li55  1  0.58333333  0.75000000  0.83333333  1
  Li  Li56  1  0.91666667  0.08333333  0.16666667  1
  Li  Li57  1  0.91666667  0.41666667  0.50000000  1
  Li  Li58  1  0.08333333  0.58333333  0.50000000  1
  Li  Li59  1  0.08333333  0.91666667  0.16666667  1
  Li  Li60  1  0.08333333  0.91666667  0.83333333  1
  Li  Li61  1  0.41666667  0.58333333  0.83333333  1
  Li  Li62  1  0.08333333  0.00000000  0.08333333  1
  Li  Li63  1  0.41666667  0.33333333  0.41666667  1
  Li  Li64  1  0.41666667  0.66666667  0.75000000  1
  Li  Li65  1  0.75000000  0.00000000  0.41666667  1
  Li  Li66  1  0.75000000  0.00000000  0.75000000  1
  Li  Li67  1  0.75000000  0.66666667  0.75000000  1
  Li  Li68  1  0.25000000  0.50000000  0.75000000  1
  Li  Li69  1  0.58333333  0.50000000  0.41666667  1
  Li  Li70  1  0.58333333  0.50000000  0.75000000  1
  Li  Li71  1  0.91666667  0.16666667  0.08333333  1
  Li  Li72  1  0.25000000  0.33333333  0.91666667  1
  Li  Li73  1  0.25000000  0.66666667  0.25000000  1
  Li  Li74  1  0.91666667  0.00000000  0.58333333  1
  Li  Li75  1  0.08333333  0.83333333  0.25000000  1
  Li  Li76  1  0.08333333  0.83333333  0.91666667  1
  Li  Li77  1  0.41666667  0.16666667  0.25000000  1
  Li  Li78  1  0.41666667  0.83333333  0.58333333  1
  Li  Li79  1  0.75000000  0.16666667  0.91666667  1
  Li  Li80  1  0.75000000  0.83333333  0.58333333  1
  Li  Li81  1  0.75000000  0.83333333  0.91666667  1
  Li  Li82  1  0.00000000  0.41666667  0.41666667  1
  Li  Li83  1  0.00000000  0.41666667  0.75000000  1
  Li  Li84  1  0.33333333  0.41666667  0.41666667  1
  Li  Li85  1  0.66666667  0.41666667  0.41666667  1
  Li  Li86  1  0.66666667  0.75000000  0.08333333  1
  Li  Li87  1  0.16666667  0.58333333  0.08333333  1
  Li  Li88  1  0.50000000  0.25000000  0.08333333  1
  Li  Li89  1  0.50000000  0.91666667  0.08333333  1
  Li  Li90  1  0.16666667  0.08333333  0.25000000  1
  Li  Li91  1  0.16666667  0.08333333  0.91666667  1
  Li  Li92  1  0.16666667  0.41666667  0.91666667  1
  Li  Li93  1  0.50000000  0.41666667  0.25000000  1
  Li  Li94  1  0.50000000  0.41666667  0.91666667  1
  Li  Li95  1  0.50000000  0.75000000  0.25000000  1
  Li  Li96  1  0.83333333  0.08333333  0.25000000  1
  Li  Li97  1  0.83333333  0.08333333  0.91666667  1
  Li  Li98  1  0.83333333  0.75000000  0.25000000  1
  Li  Li99  1  0.00000000  0.25000000  0.25000000  1
  Li  Li100  1  0.00000000  0.25000000  0.91666667  1
  Li  Li101  1  0.33333333  0.25000000  0.25000000  1
  Li  Li102  1  0.66666667  0.58333333  0.91666667  1
  Li  Li103  1  0.66666667  0.91666667  0.58333333  1
  Li  Li104  1  0.66666667  0.91666667  0.91666667  1
  Li  Li105  1  0.00000000  0.33333333  0.66666667  1
  Li  Li106  1  0.33333333  0.66666667  0.33333333  1
  Li  Li107  1  0.66666667  0.00000000  0.33333333  1
  Li  Li108  1  0.66666667  0.33333333  0.33333333  1
  Li  Li109  1  0.16666667  0.50000000  0.33333333  1
  Li  Li110  1  0.50000000  0.83333333  0.33333333  1
  Li  Li111  1  0.83333333  0.16666667  0.33333333  1
  Li  Li112  1  0.83333333  0.50000000  0.66666667  1
  Li  Li113  1  0.83333333  0.83333333  0.66666667  1
  Li  Li114  1  0.16666667  0.00000000  0.16666667  1
  Li  Li115  1  0.16666667  0.33333333  0.16666667  1
  Li  Li116  1  0.50000000  0.33333333  0.83333333  1
  Li  Li117  1  0.83333333  0.66666667  0.50000000  1
  Li  Li118  1  0.00000000  0.16666667  0.83333333  1
  Li  Li119  1  0.00000000  0.50000000  0.16666667  1
  Li  Li120  1  0.00000000  0.50000000  0.50000000  1
  Li  Li121  1  0.00000000  0.83333333  0.50000000  1
  Li  Li122  1  0.33333333  0.16666667  0.50000000  1
  Li  Li123  1  0.33333333  0.50000000  0.83333333  1
  Li  Li124  1  0.66666667  0.16666667  0.50000000  1
  Li  Li125  1  0.66666667  0.83333333  0.83333333  1
  Li  Li126  1  0.12500000  0.54166667  0.04166667  1
  Li  Li127  1  0.12500000  0.54166667  0.37500000  1
  Li  Li128  1  0.54166667  0.62500000  0.20833333  1
  Li  Li129  1  0.70833333  0.12500000  0.87500000  1
  Li  Li130  1  0.37500000  0.95833333  0.37500000  1
  Li  Li131  1  0.70833333  0.62500000  0.04166667  1
  Li  Li132  1  0.87500000  0.20833333  0.12500000  1
  Li  Li133  1  0.87500000  0.87500000  0.45833333  1
  Li  Li134  1  0.54166667  0.70833333  0.29166667  1
  Li  Li135  1  0.87500000  0.37500000  0.62500000  1
  Li  Li136  1  0.70833333  0.70833333  0.95833333  1
  Li  Li137  1  0.20833333  0.45833333  0.20833333  1
  Li  Li138  1  0.54166667  0.45833333  0.87500000  1
  Li  Li139  1  0.37500000  0.95833333  0.87500000  1
  Li  Li140  1  0.62500000  0.87500000  0.37500000  1
  Li  Li141  1  0.12500000  0.37500000  0.37500000  1
  Li  Li142  1  0.45833333  0.04166667  0.37500000  1
  Li  Li143  1  0.20833333  0.79166667  0.79166667  1
  Li  Li144  1  0.04166667  0.62500000  0.79166667  1
  Li  Li145  1  0.04166667  0.12500000  0.62500000  1
  Li  Li146  1  0.87500000  0.29166667  0.95833333  1
  Li  Li147  1  0.95833333  0.87500000  0.62500000  1
  Li  Li148  1  0.79166667  0.04166667  0.29166667  1
  Li  Li149  1  0.45833333  0.45833333  0.04166667  1
  Li  Li150  1  0.95833333  0.95833333  0.70833333  1
  Li  Li151  1  0.12500000  0.45833333  0.87500000  1
  Li  Li152  1  0.95833333  0.62500000  0.54166667  1
  Li  Li153  1  0.62500000  0.12500000  0.70833333  1
  Li  Li154  1  0.12500000  0.29166667  0.70833333  1
  Li  Li155  1  0.45833333  0.37500000  0.45833333  1
  Li  Li156  1  0.79166667  0.37500000  0.12500000  1
  Li  Li157  1  0.62500000  0.04166667  0.29166667  1
  Li  Li158  1  0.04166667  0.79166667  0.79166667  1
  Li  Li159  1  0.70833333  0.12500000  0.45833333  1
  Li  Li160  1  0.54166667  0.12500000  0.62500000  1
  Li  Li161  1  0.87500000  0.79166667  0.95833333  1
  La  La162  1  0.16666667  0.16666667  0.16666667  1
  La  La163  1  0.16666667  0.16666667  0.50000000  1
  La  La164  1  0.16666667  0.16666667  0.83333333  1
  La  La165  1  0.16666667  0.50000000  0.50000000  1
  La  La166  1  0.16666667  0.50000000  0.83333333  1
  La  La167  1  0.16666667  0.83333333  0.50000000  1
  La  La168  1  0.16666667  0.83333333  0.83333333  1
  La  La169  1  0.50000000  0.16666667  0.16666667  1
  La  La170  1  0.50000000  0.16666667  0.83333333  1
  La  La171  1  0.50000000  0.50000000  0.16666667  1
  La  La172  1  0.50000000  0.50000000  0.50000000  1
  La  La173  1  0.50000000  0.83333333  0.16666667  1
  La  La174  1  0.50000000  0.83333333  0.50000000  1
  La  La175  1  0.50000000  0.83333333  0.83333333  1
  La  La176  1  0.83333333  0.16666667  0.16666667  1
  La  La177  1  0.83333333  0.50000000  0.50000000  1
  La  La178  1  0.83333333  0.83333333  0.50000000  1
  La  La179  1  0.83333333  0.83333333  0.83333333  1
  La  La180  1  0.00000000  0.00000000  0.50000000  1
  La  La181  1  0.00000000  0.00000000  0.83333333  1
  La  La182  1  0.00000000  0.33333333  0.16666667  1
  La  La183  1  0.00000000  0.66666667  0.16666667  1
  La  La184  1  0.00000000  0.66666667  0.83333333  1
  La  La185  1  0.33333333  0.00000000  0.50000000  1
  La  La186  1  0.33333333  0.33333333  0.16666667  1
  La  La187  1  0.33333333  0.33333333  0.50000000  1
  La  La188  1  0.33333333  0.66666667  0.16666667  1
  La  La189  1  0.33333333  0.66666667  0.50000000  1
  La  La190  1  0.66666667  0.00000000  0.16666667  1
  La  La191  1  0.66666667  0.00000000  0.50000000  1
  La  La192  1  0.66666667  0.33333333  0.16666667  1
  La  La193  1  0.66666667  0.33333333  0.50000000  1
  La  La194  1  0.66666667  0.33333333  0.83333333  1
  La  La195  1  0.66666667  0.66666667  0.16666667  1
  La  La196  1  0.66666667  0.66666667  0.50000000  1
  La  La197  1  0.00000000  0.16666667  0.00000000  1
  La  La198  1  0.00000000  0.16666667  0.33333333  1
  La  La199  1  0.00000000  0.16666667  0.66666667  1
  La  La200  1  0.00000000  0.50000000  0.33333333  1
  La  La201  1  0.00000000  0.50000000  0.66666667  1
  La  La202  1  0.00000000  0.83333333  0.00000000  1
  La  La203  1  0.00000000  0.83333333  0.33333333  1
  La  La204  1  0.00000000  0.83333333  0.66666667  1
  La  La205  1  0.33333333  0.16666667  0.33333333  1
  La  La206  1  0.33333333  0.16666667  0.66666667  1
  La  La207  1  0.33333333  0.83333333  1.00000000  1
  La  La208  1  0.33333333  0.83333333  0.33333333  1
  La  La209  1  0.66666667  0.50000000  1.00000000  1
  La  La210  1  0.66666667  0.50000000  0.33333333  1
  La  La211  1  0.66666667  0.50000000  0.66666667  1
  La  La212  1  0.66666667  0.83333333  1.00000000  1
  La  La213  1  0.16666667  0.00000000  0.00000000  1
  La  La214  1  0.16666667  0.00000000  0.66666667  1
  La  La215  1  0.16666667  0.33333333  0.00000000  1
  La  La216  1  0.16666667  0.33333333  0.66666667  1
  La  La217  1  0.16666667  0.66666667  0.33333333  1
  La  La218  1  0.16666667  0.66666667  0.66666667  1
  La  La219  1  0.50000000  0.00000000  1.00000000  1
  La  La220  1  0.50000000  0.00000000  0.33333333  1
  La  La221  1  0.50000000  0.00000000  0.66666667  1
  La  La222  1  0.50000000  0.33333333  0.66666667  1
  La  La223  1  0.50000000  0.66666667  0.33333333  1
  La  La224  1  0.83333333  0.00000000  1.00000000  1
  La  La225  1  0.83333333  0.00000000  0.66666667  1
  La  La226  1  0.83333333  0.33333333  0.66666667  1
  La  La227  1  0.83333333  0.66666667  0.66666667  1
  La  La228  1  0.16666667  0.08333333  0.41666667  1
  La  La229  1  0.16666667  0.41666667  0.08333333  1
  La  La230  1  0.16666667  0.75000000  0.08333333  1
  La  La231  1  0.16666667  0.75000000  0.41666667  1
  La  La232  1  0.50000000  0.08333333  0.08333333  1
  La  La233  1  0.50000000  0.08333333  0.75000000  1
  La  La234  1  0.50000000  0.41666667  0.08333333  1
  La  La235  1  0.50000000  0.41666667  0.41666667  1
  La  La236  1  0.50000000  0.41666667  0.75000000  1
  La  La237  1  0.50000000  0.75000000  0.08333333  1
  La  La238  1  0.50000000  0.75000000  0.41666667  1
  La  La239  1  0.83333333  0.08333333  0.08333333  1
  La  La240  1  0.83333333  0.08333333  0.75000000  1
  La  La241  1  0.83333333  0.41666667  0.41666667  1
  La  La242  1  0.83333333  0.41666667  0.75000000  1
  La  La243  1  0.83333333  0.75000000  0.41666667  1
  La  La244  1  0.83333333  0.75000000  0.75000000  1
  La  La245  1  0.00000000  0.25000000  0.41666667  1
  La  La246  1  0.00000000  0.25000000  0.75000000  1
  La  La247  1  0.00000000  0.58333333  0.08333333  1
  La  La248  1  0.00000000  0.58333333  0.75000000  1
  La  La249  1  0.00000000  0.91666667  0.08333333  1
  La  La250  1  0.00000000  0.91666667  0.41666667  1
  La  La251  1  0.33333333  0.25000000  0.08333333  1
  La  La252  1  0.33333333  0.25000000  0.41666667  1
  La  La253  1  0.33333333  0.25000000  0.75000000  1
  La  La254  1  0.33333333  0.58333333  0.08333333  1
  La  La255  1  0.33333333  0.58333333  0.75000000  1
  La  La256  1  0.33333333  0.91666667  0.41666667  1
  La  La257  1  0.33333333  0.91666667  0.75000000  1
  La  La258  1  0.66666667  0.25000000  0.08333333  1
  La  La259  1  0.66666667  0.25000000  0.75000000  1
  La  La260  1  0.66666667  0.58333333  0.08333333  1
  La  La261  1  0.66666667  0.58333333  0.41666667  1
  La  La262  1  0.66666667  0.91666667  0.08333333  1
  La  La263  1  0.66666667  0.91666667  0.41666667  1
  La  La264  1  0.00000000  0.08333333  0.25000000  1
  La  La265  1  0.00000000  0.08333333  0.91666667  1
  La  La266  1  0.00000000  0.41666667  0.25000000  1
  La  La267  1  0.00000000  0.41666667  0.58333333  1
  La  La268  1  0.00000000  0.41666667  0.91666667  1
  La  La269  1  0.00000000  0.75000000  0.25000000  1
  La  La270  1  0.00000000  0.75000000  0.91666667  1
  La  La271  1  0.33333333  0.08333333  0.25000000  1
  La  La272  1  0.33333333  0.08333333  0.58333333  1
  La  La273  1  0.33333333  0.41666667  0.25000000  1
  La  La274  1  0.33333333  0.41666667  0.91666667  1
  La  La275  1  0.33333333  0.75000000  0.25000000  1
  La  La276  1  0.33333333  0.75000000  0.58333333  1
  La  La277  1  0.33333333  0.75000000  0.91666667  1
  La  La278  1  0.66666667  0.08333333  0.25000000  1
  La  La279  1  0.66666667  0.08333333  0.91666667  1
  La  La280  1  0.66666667  0.41666667  0.58333333  1
  La  La281  1  0.66666667  0.41666667  0.91666667  1
  La  La282  1  0.66666667  0.75000000  0.58333333  1
  La  La283  1  0.66666667  0.75000000  0.91666667  1
  La  La284  1  0.16666667  0.25000000  0.25000000  1
  La  La285  1  0.16666667  0.25000000  0.91666667  1
  La  La286  1  0.16666667  0.58333333  0.58333333  1
  La  La287  1  0.50000000  0.25000000  0.58333333  1
  La  La288  1  0.50000000  0.58333333  0.25000000  1
  La  La289  1  0.50000000  0.58333333  0.58333333  1
  La  La290  1  0.50000000  0.91666667  0.25000000  1
  La  La291  1  0.50000000  0.91666667  0.58333333  1
  La  La292  1  0.50000000  0.91666667  0.91666667  1
  La  La293  1  0.83333333  0.25000000  0.58333333  1
  La  La294  1  0.83333333  0.58333333  0.58333333  1
  La  La295  1  0.83333333  0.91666667  0.58333333  1
  La  La296  1  0.83333333  0.91666667  0.91666667  1
  La  La297  1  0.08333333  0.16666667  0.08333333  1
  La  La298  1  0.08333333  0.16666667  0.41666667  1
  La  La299  1  0.08333333  0.16666667  0.75000000  1
  La  La300  1  0.08333333  0.50000000  0.08333333  1
  La  La301  1  0.08333333  0.50000000  0.41666667  1
  La  La302  1  0.08333333  0.50000000  0.75000000  1
  La  La303  1  0.08333333  0.83333333  0.08333333  1
  La  La304  1  0.08333333  0.83333333  0.41666667  1
  La  La305  1  0.08333333  0.83333333  0.75000000  1
  La  La306  1  0.41666667  0.16666667  0.75000000  1
  La  La307  1  0.41666667  0.50000000  0.08333333  1
  La  La308  1  0.41666667  0.83333333  0.08333333  1
  La  La309  1  0.41666667  0.83333333  0.75000000  1
  La  La310  1  0.75000000  0.16666667  0.08333333  1
  La  La311  1  0.75000000  0.16666667  0.41666667  1
  La  La312  1  0.75000000  0.16666667  0.75000000  1
  La  La313  1  0.75000000  0.50000000  0.08333333  1
  La  La314  1  0.75000000  0.50000000  0.41666667  1
  La  La315  1  0.75000000  0.50000000  0.75000000  1
  La  La316  1  0.75000000  0.83333333  0.08333333  1
  La  La317  1  0.75000000  0.83333333  0.41666667  1
  La  La318  1  0.75000000  0.83333333  0.75000000  1
  La  La319  1  0.25000000  0.00000000  0.75000000  1
  La  La320  1  0.25000000  0.33333333  0.08333333  1
  La  La321  1  0.25000000  0.33333333  0.75000000  1
  La  La322  1  0.25000000  0.66666667  0.08333333  1
  La  La323  1  0.25000000  0.66666667  0.41666667  1
  La  La324  1  0.25000000  0.66666667  0.75000000  1
  La  La325  1  0.58333333  0.00000000  0.08333333  1
  La  La326  1  0.58333333  0.00000000  0.41666667  1
  La  La327  1  0.58333333  0.33333333  0.41666667  1
  La  La328  1  0.58333333  0.33333333  0.75000000  1
  La  La329  1  0.58333333  0.66666667  0.08333333  1
  La  La330  1  0.91666667  0.00000000  0.08333333  1
  La  La331  1  0.91666667  0.00000000  0.41666667  1
  La  La332  1  0.91666667  0.00000000  0.75000000  1
  La  La333  1  0.91666667  0.33333333  0.08333333  1
  La  La334  1  0.91666667  0.33333333  0.41666667  1
  La  La335  1  0.91666667  0.33333333  0.75000000  1
  La  La336  1  0.91666667  0.66666667  0.08333333  1
  La  La337  1  0.91666667  0.66666667  0.41666667  1
  La  La338  1  0.91666667  0.66666667  0.75000000  1
  La  La339  1  0.25000000  0.16666667  0.58333333  1
  La  La340  1  0.25000000  0.16666667  0.91666667  1
  La  La341  1  0.25000000  0.50000000  0.25000000  1
  La  La342  1  0.25000000  0.50000000  0.58333333  1
  La  La343  1  0.25000000  0.50000000  0.91666667  1
  La  La344  1  0.25000000  0.83333333  0.25000000  1
  La  La345  1  0.25000000  0.83333333  0.58333333  1
  La  La346  1  0.58333333  0.16666667  0.58333333  1
  La  La347  1  0.58333333  0.16666667  0.91666667  1
  La  La348  1  0.58333333  0.50000000  0.58333333  1
  La  La349  1  0.58333333  0.83333333  0.25000000  1
  La  La350  1  0.58333333  0.83333333  0.91666667  1
  La  La351  1  0.91666667  0.16666667  0.25000000  1
  La  La352  1  0.91666667  0.16666667  0.58333333  1
  La  La353  1  0.91666667  0.16666667  0.91666667  1
  La  La354  1  0.91666667  0.50000000  0.25000000  1
  La  La355  1  0.91666667  0.50000000  0.58333333  1
  La  La356  1  0.91666667  0.50000000  0.91666667  1
  La  La357  1  0.91666667  0.83333333  0.25000000  1
  La  La358  1  0.91666667  0.83333333  0.58333333  1
  La  La359  1  0.91666667  0.83333333  0.91666667  1
  La  La360  1  0.08333333  0.00000000  0.25000000  1
  La  La361  1  0.08333333  0.00000000  0.58333333  1
  La  La362  1  0.08333333  0.33333333  0.25000000  1
  La  La363  1  0.08333333  0.33333333  0.58333333  1
  La  La364  1  0.08333333  0.66666667  0.25000000  1
  La  La365  1  0.08333333  0.66666667  0.58333333  1
  La  La366  1  0.08333333  0.66666667  0.91666667  1
  La  La367  1  0.41666667  0.00000000  0.25000000  1
  La  La368  1  0.41666667  0.00000000  0.58333333  1
  La  La369  1  0.41666667  0.00000000  0.91666667  1
  La  La370  1  0.41666667  0.33333333  0.25000000  1
  La  La371  1  0.41666667  0.33333333  0.58333333  1
  La  La372  1  0.41666667  0.33333333  0.91666667  1
  La  La373  1  0.41666667  0.66666667  0.25000000  1
  La  La374  1  0.41666667  0.66666667  0.58333333  1
  La  La375  1  0.41666667  0.66666667  0.91666667  1
  La  La376  1  0.75000000  0.00000000  0.25000000  1
  La  La377  1  0.75000000  0.00000000  0.58333333  1
  La  La378  1  0.75000000  0.00000000  0.91666667  1
  La  La379  1  0.75000000  0.33333333  0.25000000  1
  La  La380  1  0.75000000  0.33333333  0.58333333  1
  La  La381  1  0.75000000  0.33333333  0.91666667  1
  La  La382  1  0.75000000  0.66666667  0.25000000  1
  La  La383  1  0.75000000  0.66666667  0.58333333  1
  La  La384  1  0.75000000  0.66666667  0.91666667  1
  La  La385  1  0.08333333  0.08333333  0.16666667  1
  La  La386  1  0.08333333  0.08333333  0.50000000  1
  La  La387  1  0.08333333  0.08333333  0.83333333  1
  La  La388  1  0.08333333  0.41666667  0.16666667  1
  La  La389  1  0.08333333  0.41666667  0.50000000  1
  La  La390  1  0.08333333  0.41666667  0.83333333  1
  La  La391  1  0.08333333  0.75000000  0.16666667  1
  La  La392  1  0.08333333  0.75000000  0.50000000  1
  La  La393  1  0.08333333  0.75000000  0.83333333  1
  La  La394  1  0.41666667  0.08333333  0.16666667  1
  La  La395  1  0.41666667  0.41666667  0.50000000  1
  La  La396  1  0.41666667  0.75000000  0.50000000  1
  La  La397  1  0.75000000  0.08333333  0.50000000  1
  La  La398  1  0.75000000  0.41666667  0.16666667  1
  La  La399  1  0.75000000  0.41666667  0.50000000  1
  La  La400  1  0.75000000  0.41666667  0.83333333  1
  La  La401  1  0.75000000  0.75000000  0.16666667  1
  La  La402  1  0.75000000  0.75000000  0.50000000  1
  La  La403  1  0.75000000  0.75000000  0.83333333  1
  La  La404  1  0.25000000  0.25000000  0.50000000  1
  La  La405  1  0.25000000  0.25000000  0.83333333  1
  La  La406  1  0.25000000  0.58333333  0.16666667  1
  La  La407  1  0.25000000  0.58333333  0.83333333  1
  La  La408  1  0.25000000  0.91666667  0.16666667  1
  La  La409  1  0.58333333  0.25000000  0.16666667  1
  La  La410  1  0.58333333  0.25000000  0.83333333  1
  La  La411  1  0.58333333  0.58333333  0.50000000  1
  La  La412  1  0.58333333  0.91666667  0.16666667  1
  La  La413  1  0.58333333  0.91666667  0.50000000  1
  La  La414  1  0.58333333  0.91666667  0.83333333  1
  La  La415  1  0.91666667  0.25000000  0.50000000  1
  La  La416  1  0.91666667  0.58333333  0.50000000  1
  La  La417  1  0.91666667  0.58333333  0.83333333  1
  La  La418  1  0.91666667  0.91666667  0.16666667  1
  La  La419  1  0.91666667  0.91666667  0.50000000  1
  La  La420  1  0.91666667  0.91666667  0.83333333  1
  La  La421  1  0.25000000  0.08333333  0.00000000  1
  La  La422  1  0.25000000  0.08333333  0.66666667  1
  La  La423  1  0.25000000  0.41666667  0.33333333  1
  La  La424  1  0.25000000  0.75000000  1.00000000  1
  La  La425  1  0.25000000  0.75000000  0.33333333  1
  La  La426  1  0.25000000  0.75000000  0.66666667  1
  La  La427  1  0.58333333  0.08333333  1.00000000  1
  La  La428  1  0.58333333  0.08333333  0.33333333  1
  La  La429  1  0.58333333  0.08333333  0.66666667  1
  La  La430  1  0.58333333  0.41666667  0.33333333  1
  La  La431  1  0.58333333  0.41666667  0.66666667  1
  La  La432  1  0.58333333  0.75000000  1.00000000  1
  La  La433  1  0.58333333  0.75000000  0.33333333  1
  La  La434  1  0.58333333  0.75000000  0.66666667  1
  La  La435  1  0.91666667  0.08333333  0.33333333  1
  La  La436  1  0.91666667  0.08333333  0.66666667  1
  La  La437  1  0.91666667  0.41666667  1.00000000  1
  La  La438  1  0.91666667  0.41666667  0.33333333  1
  La  La439  1  0.91666667  0.75000000  1.00000000  1
  La  La440  1  0.91666667  0.75000000  0.33333333  1
  La  La441  1  0.91666667  0.75000000  0.66666667  1
  La  La442  1  0.08333333  0.25000000  0.00000000  1
  La  La443  1  0.08333333  0.25000000  0.33333333  1
  La  La444  1  0.08333333  0.25000000  0.66666667  1
  La  La445  1  0.08333333  0.58333333  1.00000000  1
  La  La446  1  0.08333333  0.91666667  0.33333333  1
  La  La447  1  0.41666667  0.25000000  1.00000000  1
  La  La448  1  0.41666667  0.58333333  1.00000000  1
  La  La449  1  0.41666667  0.58333333  0.33333333  1
  La  La450  1  0.41666667  0.58333333  0.66666667  1
  La  La451  1  0.41666667  0.91666667  1.00000000  1
  La  La452  1  0.75000000  0.25000000  1.00000000  1
  La  La453  1  0.75000000  0.25000000  0.33333333  1
  La  La454  1  0.75000000  0.25000000  0.66666667  1
  La  La455  1  0.75000000  0.58333333  1.00000000  1
  La  La456  1  0.75000000  0.58333333  0.33333333  1
  La  La457  1  0.75000000  0.91666667  1.00000000  1
  La  La458  1  0.75000000  0.91666667  0.66666667  1
  Sc  Sc459  1  0.16666667  0.50000000  0.16666667  1
  Sc  Sc460  1  0.16666667  0.83333333  0.16666667  1
  Sc  Sc461  1  0.50000000  0.16666667  0.50000000  1
  Sc  Sc462  1  0.50000000  0.50000000  0.83333333  1
  Sc  Sc463  1  0.83333333  0.16666667  0.50000000  1
  Sc  Sc464  1  0.83333333  0.16666667  0.83333333  1
  Sc  Sc465  1  0.83333333  0.50000000  0.16666667  1
  Sc  Sc466  1  0.83333333  0.50000000  0.83333333  1
  Sc  Sc467  1  0.83333333  0.83333333  0.16666667  1
  Sc  Sc468  1  0.00000000  0.00000000  0.16666667  1
  Sc  Sc469  1  0.00000000  0.33333333  0.50000000  1
  Sc  Sc470  1  0.00000000  0.33333333  0.83333333  1
  Sc  Sc471  1  0.00000000  0.66666667  0.50000000  1
  Sc  Sc472  1  0.33333333  0.00000000  0.16666667  1
  Sc  Sc473  1  0.33333333  0.00000000  0.83333333  1
  Sc  Sc474  1  0.33333333  0.33333333  0.83333333  1
  Sc  Sc475  1  0.33333333  0.66666667  0.83333333  1
  Sc  Sc476  1  0.66666667  0.00000000  0.83333333  1
  Sc  Sc477  1  0.66666667  0.66666667  0.83333333  1
  Sc  Sc478  1  0.00000000  0.50000000  1.00000000  1
  Sc  Sc479  1  0.33333333  0.16666667  1.00000000  1
  Sc  Sc480  1  0.33333333  0.50000000  1.00000000  1
  Sc  Sc481  1  0.33333333  0.50000000  0.33333333  1
  Sc  Sc482  1  0.33333333  0.50000000  0.66666667  1
  Sc  Sc483  1  0.33333333  0.83333333  0.66666667  1
  Sc  Sc484  1  0.66666667  0.16666667  0.00000000  1
  Sc  Sc485  1  0.66666667  0.16666667  0.33333333  1
  Sc  Sc486  1  0.66666667  0.16666667  0.66666667  1
  Sc  Sc487  1  0.66666667  0.83333333  0.33333333  1
  Sc  Sc488  1  0.66666667  0.83333333  0.66666667  1
  Sc  Sc489  1  0.16666667  0.00000000  0.33333333  1
  Sc  Sc490  1  0.16666667  0.33333333  0.33333333  1
  Sc  Sc491  1  0.16666667  0.66666667  0.00000000  1
  Sc  Sc492  1  0.50000000  0.33333333  1.00000000  1
  Sc  Sc493  1  0.50000000  0.33333333  0.33333333  1
  Sc  Sc494  1  0.50000000  0.66666667  0.00000000  1
  Sc  Sc495  1  0.50000000  0.66666667  0.66666667  1
  Sc  Sc496  1  0.83333333  0.00000000  0.33333333  1
  Sc  Sc497  1  0.83333333  0.33333333  1.00000000  1
  Sc  Sc498  1  0.83333333  0.33333333  0.33333333  1
  Sc  Sc499  1  0.83333333  0.66666667  1.00000000  1
  Sc  Sc500  1  0.83333333  0.66666667  0.33333333  1
  Sc  Sc501  1  0.16666667  0.08333333  0.08333333  1
  Sc  Sc502  1  0.16666667  0.08333333  0.75000000  1
  Sc  Sc503  1  0.16666667  0.41666667  0.41666667  1
  Sc  Sc504  1  0.16666667  0.41666667  0.75000000  1
  Sc  Sc505  1  0.16666667  0.75000000  0.75000000  1
  Sc  Sc506  1  0.50000000  0.08333333  0.41666667  1
  Sc  Sc507  1  0.50000000  0.75000000  0.75000000  1
  Sc  Sc508  1  0.83333333  0.08333333  0.41666667  1
  Sc  Sc509  1  0.83333333  0.41666667  0.08333333  1
  Sc  Sc510  1  0.83333333  0.75000000  0.08333333  1
  Sc  Sc511  1  0.00000000  0.25000000  0.08333333  1
  Sc  Sc512  1  0.00000000  0.58333333  0.41666667  1
  Sc  Sc513  1  0.00000000  0.91666667  0.75000000  1
  Sc  Sc514  1  0.33333333  0.58333333  0.41666667  1
  Sc  Sc515  1  0.33333333  0.91666667  0.08333333  1
  Sc  Sc516  1  0.66666667  0.25000000  0.41666667  1
  Sc  Sc517  1  0.66666667  0.58333333  0.75000000  1
  Sc  Sc518  1  0.66666667  0.91666667  0.75000000  1
  Sc  Sc519  1  0.00000000  0.08333333  0.58333333  1
  Sc  Sc520  1  0.00000000  0.75000000  0.58333333  1
  Sc  Sc521  1  0.33333333  0.08333333  0.91666667  1
  Sc  Sc522  1  0.33333333  0.41666667  0.58333333  1
  Sc  Sc523  1  0.66666667  0.08333333  0.58333333  1
  Sc  Sc524  1  0.66666667  0.41666667  0.25000000  1
  Sc  Sc525  1  0.66666667  0.75000000  0.25000000  1
  Sc  Sc526  1  0.16666667  0.25000000  0.58333333  1
  Sc  Sc527  1  0.16666667  0.58333333  0.25000000  1
  Sc  Sc528  1  0.16666667  0.58333333  0.91666667  1
  Sc  Sc529  1  0.16666667  0.91666667  0.25000000  1
  Sc  Sc530  1  0.16666667  0.91666667  0.58333333  1
  Sc  Sc531  1  0.16666667  0.91666667  0.91666667  1
  Sc  Sc532  1  0.50000000  0.25000000  0.25000000  1
  Sc  Sc533  1  0.50000000  0.25000000  0.91666667  1
  Sc  Sc534  1  0.50000000  0.58333333  0.91666667  1
  Sc  Sc535  1  0.83333333  0.25000000  0.25000000  1
  Sc  Sc536  1  0.83333333  0.25000000  0.91666667  1
  Sc  Sc537  1  0.83333333  0.58333333  0.25000000  1
  Sc  Sc538  1  0.83333333  0.58333333  0.91666667  1
  Sc  Sc539  1  0.83333333  0.91666667  0.25000000  1
  Sc  Sc540  1  0.41666667  0.16666667  0.08333333  1
  Sc  Sc541  1  0.41666667  0.16666667  0.41666667  1
  Sc  Sc542  1  0.41666667  0.50000000  0.41666667  1
  Sc  Sc543  1  0.41666667  0.50000000  0.75000000  1
  Sc  Sc544  1  0.41666667  0.83333333  0.41666667  1
  Sc  Sc545  1  0.25000000  0.00000000  0.08333333  1
  Sc  Sc546  1  0.25000000  0.00000000  0.41666667  1
  Sc  Sc547  1  0.25000000  0.33333333  0.41666667  1
  Sc  Sc548  1  0.58333333  0.00000000  0.75000000  1
  Sc  Sc549  1  0.58333333  0.33333333  0.08333333  1
  Sc  Sc550  1  0.58333333  0.66666667  0.41666667  1
  Sc  Sc551  1  0.58333333  0.66666667  0.75000000  1
  Sc  Sc552  1  0.25000000  0.16666667  0.25000000  1
  Sc  Sc553  1  0.25000000  0.83333333  0.91666667  1
  Sc  Sc554  1  0.58333333  0.16666667  0.25000000  1
  Sc  Sc555  1  0.58333333  0.50000000  0.25000000  1
  Sc  Sc556  1  0.58333333  0.50000000  0.91666667  1
  Sc  Sc557  1  0.58333333  0.83333333  0.58333333  1
  Sc  Sc558  1  0.08333333  0.00000000  0.91666667  1
  Sc  Sc559  1  0.08333333  0.33333333  0.91666667  1
  Sc  Sc560  1  0.41666667  0.08333333  0.50000000  1
  Sc  Sc561  1  0.41666667  0.08333333  0.83333333  1
  Sc  Sc562  1  0.41666667  0.41666667  0.16666667  1
  Sc  Sc563  1  0.41666667  0.41666667  0.83333333  1
  Sc  Sc564  1  0.41666667  0.75000000  0.16666667  1
  Sc  Sc565  1  0.41666667  0.75000000  0.83333333  1
  Sc  Sc566  1  0.75000000  0.08333333  0.16666667  1
  Sc  Sc567  1  0.75000000  0.08333333  0.83333333  1
  Sc  Sc568  1  0.25000000  0.25000000  0.16666667  1
  Sc  Sc569  1  0.25000000  0.58333333  0.50000000  1
  Sc  Sc570  1  0.25000000  0.91666667  0.50000000  1
  Sc  Sc571  1  0.25000000  0.91666667  0.83333333  1
  Sc  Sc572  1  0.58333333  0.25000000  0.50000000  1
  Sc  Sc573  1  0.58333333  0.58333333  0.16666667  1
  Sc  Sc574  1  0.58333333  0.58333333  0.83333333  1
  Sc  Sc575  1  0.91666667  0.25000000  0.16666667  1
  Sc  Sc576  1  0.91666667  0.25000000  0.83333333  1
  Sc  Sc577  1  0.91666667  0.58333333  0.16666667  1
  Sc  Sc578  1  0.25000000  0.08333333  0.33333333  1
  Sc  Sc579  1  0.25000000  0.41666667  1.00000000  1
  Sc  Sc580  1  0.25000000  0.41666667  0.66666667  1
  Sc  Sc581  1  0.58333333  0.41666667  1.00000000  1
  Sc  Sc582  1  0.91666667  0.08333333  1.00000000  1
  Sc  Sc583  1  0.91666667  0.41666667  0.66666667  1
  Sc  Sc584  1  0.08333333  0.58333333  0.33333333  1
  Sc  Sc585  1  0.08333333  0.58333333  0.66666667  1
  Sc  Sc586  1  0.08333333  0.91666667  0.00000000  1
  Sc  Sc587  1  0.08333333  0.91666667  0.66666667  1
  Sc  Sc588  1  0.41666667  0.25000000  0.33333333  1
  Sc  Sc589  1  0.41666667  0.25000000  0.66666667  1
  Sc  Sc590  1  0.41666667  0.91666667  0.33333333  1
  Sc  Sc591  1  0.41666667  0.91666667  0.66666667  1
  Sc  Sc592  1  0.75000000  0.58333333  0.66666667  1
  Sc  Sc593  1  0.75000000  0.91666667  0.33333333  1
  Cl  Cl594  1  0.25000000  0.25000000  0.25000000  1
  Cl  Cl595  1  0.25000000  0.25000000  0.58333333  1
  Cl  Cl596  1  0.25000000  0.25000000  0.91666667  1
  Cl  Cl597  1  0.25000000  0.58333333  0.25000000  1
  Cl  Cl598  1  0.25000000  0.58333333  0.58333333  1
  Cl  Cl599  1  0.25000000  0.58333333  0.91666667  1
  Cl  Cl600  1  0.25000000  0.91666667  0.25000000  1
  Cl  Cl601  1  0.25000000  0.91666667  0.58333333  1
  Cl  Cl602  1  0.25000000  0.91666667  0.91666667  1
  Cl  Cl603  1  0.58333333  0.25000000  0.25000000  1
  Cl  Cl604  1  0.58333333  0.25000000  0.58333333  1
  Cl  Cl605  1  0.58333333  0.25000000  0.91666667  1
  Cl  Cl606  1  0.58333333  0.58333333  0.25000000  1
  Cl  Cl607  1  0.58333333  0.58333333  0.58333333  1
  Cl  Cl608  1  0.58333333  0.58333333  0.91666667  1
  Cl  Cl609  1  0.58333333  0.91666667  0.25000000  1
  Cl  Cl610  1  0.58333333  0.91666667  0.58333333  1
  Cl  Cl611  1  0.58333333  0.91666667  0.91666667  1
  Cl  Cl612  1  0.91666667  0.25000000  0.25000000  1
  Cl  Cl613  1  0.91666667  0.25000000  0.58333333  1
  Cl  Cl614  1  0.91666667  0.25000000  0.91666667  1
  Cl  Cl615  1  0.91666667  0.58333333  0.25000000  1
  Cl  Cl616  1  0.91666667  0.58333333  0.58333333  1
  Cl  Cl617  1  0.91666667  0.58333333  0.91666667  1
  Cl  Cl618  1  0.91666667  0.91666667  0.25000000  1
  Cl  Cl619  1  0.91666667  0.91666667  0.58333333  1
  Cl  Cl620  1  0.91666667  0.91666667  0.91666667  1
  Cl  Cl621  1  0.08333333  0.08333333  0.25000000  1
  Cl  Cl622  1  0.08333333  0.08333333  0.58333333  1
  Cl  Cl623  1  0.08333333  0.08333333  0.91666667  1
  Cl  Cl624  1  0.08333333  0.41666667  0.25000000  1
  Cl  Cl625  1  0.08333333  0.41666667  0.58333333  1
  Cl  Cl626  1  0.08333333  0.41666667  0.91666667  1
  Cl  Cl627  1  0.08333333  0.75000000  0.25000000  1
  Cl  Cl628  1  0.08333333  0.75000000  0.58333333  1
  Cl  Cl629  1  0.08333333  0.75000000  0.91666667  1
  Cl  Cl630  1  0.41666667  0.08333333  0.25000000  1
  Cl  Cl631  1  0.41666667  0.08333333  0.58333333  1
  Cl  Cl632  1  0.41666667  0.08333333  0.91666667  1
  Cl  Cl633  1  0.41666667  0.41666667  0.25000000  1
  Cl  Cl634  1  0.41666667  0.41666667  0.58333333  1
  Cl  Cl635  1  0.41666667  0.41666667  0.91666667  1
  Cl  Cl636  1  0.41666667  0.75000000  0.25000000  1
  Cl  Cl637  1  0.41666667  0.75000000  0.58333333  1
  Cl  Cl638  1  0.41666667  0.75000000  0.91666667  1
  Cl  Cl639  1  0.75000000  0.08333333  0.25000000  1
  Cl  Cl640  1  0.75000000  0.08333333  0.58333333  1
  Cl  Cl641  1  0.75000000  0.08333333  0.91666667  1
  Cl  Cl642  1  0.75000000  0.41666667  0.25000000  1
  Cl  Cl643  1  0.75000000  0.41666667  0.58333333  1
  Cl  Cl644  1  0.75000000  0.41666667  0.91666667  1
  Cl  Cl645  1  0.75000000  0.75000000  0.25000000  1
  Cl  Cl646  1  0.75000000  0.75000000  0.58333333  1
  Cl  Cl647  1  0.75000000  0.75000000  0.91666667  1
  Cl  Cl648  1  0.08333333  0.25000000  0.08333333  1
  Cl  Cl649  1  0.08333333  0.25000000  0.41666667  1
  Cl  Cl650  1  0.08333333  0.25000000  0.75000000  1
  Cl  Cl651  1  0.08333333  0.58333333  0.08333333  1
  Cl  Cl652  1  0.08333333  0.58333333  0.41666667  1
  Cl  Cl653  1  0.08333333  0.58333333  0.75000000  1
  Cl  Cl654  1  0.08333333  0.91666667  0.08333333  1
  Cl  Cl655  1  0.08333333  0.91666667  0.41666667  1
  Cl  Cl656  1  0.08333333  0.91666667  0.75000000  1
  Cl  Cl657  1  0.41666667  0.25000000  0.08333333  1
  Cl  Cl658  1  0.41666667  0.25000000  0.41666667  1
  Cl  Cl659  1  0.41666667  0.25000000  0.75000000  1
  Cl  Cl660  1  0.41666667  0.58333333  0.08333333  1
  Cl  Cl661  1  0.41666667  0.58333333  0.41666667  1
  Cl  Cl662  1  0.41666667  0.58333333  0.75000000  1
  Cl  Cl663  1  0.41666667  0.91666667  0.08333333  1
  Cl  Cl664  1  0.41666667  0.91666667  0.41666667  1
  Cl  Cl665  1  0.41666667  0.91666667  0.75000000  1
  Cl  Cl666  1  0.75000000  0.25000000  0.08333333  1
  Cl  Cl667  1  0.75000000  0.25000000  0.41666667  1
  Cl  Cl668  1  0.75000000  0.25000000  0.75000000  1
  Cl  Cl669  1  0.75000000  0.58333333  0.08333333  1
  Cl  Cl670  1  0.75000000  0.58333333  0.41666667  1
  Cl  Cl671  1  0.75000000  0.58333333  0.75000000  1
  Cl  Cl672  1  0.75000000  0.91666667  0.08333333  1
  Cl  Cl673  1  0.75000000  0.91666667  0.41666667  1
  Cl  Cl674  1  0.75000000  0.91666667  0.75000000  1
  Cl  Cl675  1  0.25000000  0.08333333  0.08333333  1
  Cl  Cl676  1  0.25000000  0.08333333  0.41666667  1
  Cl  Cl677  1  0.25000000  0.08333333  0.75000000  1
  Cl  Cl678  1  0.25000000  0.41666667  0.08333333  1
  Cl  Cl679  1  0.25000000  0.41666667  0.41666667  1
  Cl  Cl680  1  0.25000000  0.41666667  0.75000000  1
  Cl  Cl681  1  0.25000000  0.75000000  0.08333333  1
  Cl  Cl682  1  0.25000000  0.75000000  0.41666667  1
  Cl  Cl683  1  0.25000000  0.75000000  0.75000000  1
  Cl  Cl684  1  0.58333333  0.08333333  0.08333333  1
  Cl  Cl685  1  0.58333333  0.08333333  0.41666667  1
  Cl  Cl686  1  0.58333333  0.08333333  0.75000000  1
  Cl  Cl687  1  0.58333333  0.41666667  0.08333333  1
  Cl  Cl688  1  0.58333333  0.41666667  0.41666667  1
  Cl  Cl689  1  0.58333333  0.41666667  0.75000000  1
  Cl  Cl690  1  0.58333333  0.75000000  0.08333333  1
  Cl  Cl691  1  0.58333333  0.75000000  0.41666667  1
  Cl  Cl692  1  0.58333333  0.75000000  0.75000000  1
  Cl  Cl693  1  0.91666667  0.08333333  0.08333333  1
  Cl  Cl694  1  0.91666667  0.08333333  0.41666667  1
  Cl  Cl695  1  0.91666667  0.08333333  0.75000000  1
  Cl  Cl696  1  0.91666667  0.41666667  0.08333333  1
  Cl  Cl697  1  0.91666667  0.41666667  0.41666667  1
  Cl  Cl698  1  0.91666667  0.41666667  0.75000000  1
  Cl  Cl699  1  0.91666667  0.75000000  0.08333333  1
  Cl  Cl700  1  0.91666667  0.75000000  0.41666667  1
  Cl  Cl701  1  0.91666667  0.75000000  0.75000000  1
  Cl  Cl702  1  0.25000000  0.16666667  0.16666667  1
  Cl  Cl703  1  0.25000000  0.16666667  0.50000000  1
  Cl  Cl704  1  0.25000000  0.16666667  0.83333333  1
  Cl  Cl705  1  0.25000000  0.50000000  0.16666667  1
  Cl  Cl706  1  0.25000000  0.50000000  0.50000000  1
  Cl  Cl707  1  0.25000000  0.50000000  0.83333333  1
  Cl  Cl708  1  0.25000000  0.83333333  0.16666667  1
  Cl  Cl709  1  0.25000000  0.83333333  0.50000000  1
  Cl  Cl710  1  0.25000000  0.83333333  0.83333333  1
  Cl  Cl711  1  0.58333333  0.16666667  0.16666667  1
  Cl  Cl712  1  0.58333333  0.16666667  0.50000000  1
  Cl  Cl713  1  0.58333333  0.16666667  0.83333333  1
  Cl  Cl714  1  0.58333333  0.50000000  0.16666667  1
  Cl  Cl715  1  0.58333333  0.50000000  0.50000000  1
  Cl  Cl716  1  0.58333333  0.50000000  0.83333333  1
  Cl  Cl717  1  0.58333333  0.83333333  0.16666667  1
  Cl  Cl718  1  0.58333333  0.83333333  0.50000000  1
  Cl  Cl719  1  0.58333333  0.83333333  0.83333333  1
  Cl  Cl720  1  0.91666667  0.16666667  0.16666667  1
  Cl  Cl721  1  0.91666667  0.16666667  0.50000000  1
  Cl  Cl722  1  0.91666667  0.16666667  0.83333333  1
  Cl  Cl723  1  0.91666667  0.50000000  0.16666667  1
  Cl  Cl724  1  0.91666667  0.50000000  0.50000000  1
  Cl  Cl725  1  0.91666667  0.50000000  0.83333333  1
  Cl  Cl726  1  0.91666667  0.83333333  0.16666667  1
  Cl  Cl727  1  0.91666667  0.83333333  0.50000000  1
  Cl  Cl728  1  0.91666667  0.83333333  0.83333333  1
  Cl  Cl729  1  0.08333333  0.00000000  0.16666667  1
  Cl  Cl730  1  0.08333333  0.00000000  0.50000000  1
  Cl  Cl731  1  0.08333333  0.00000000  0.83333333  1
  Cl  Cl732  1  0.08333333  0.33333333  0.16666667  1
  Cl  Cl733  1  0.08333333  0.33333333  0.50000000  1
  Cl  Cl734  1  0.08333333  0.33333333  0.83333333  1
  Cl  Cl735  1  0.08333333  0.66666667  0.16666667  1
  Cl  Cl736  1  0.08333333  0.66666667  0.50000000  1
  Cl  Cl737  1  0.08333333  0.66666667  0.83333333  1
  Cl  Cl738  1  0.41666667  0.00000000  0.16666667  1
  Cl  Cl739  1  0.41666667  0.00000000  0.50000000  1
  Cl  Cl740  1  0.41666667  0.00000000  0.83333333  1
  Cl  Cl741  1  0.41666667  0.33333333  0.16666667  1
  Cl  Cl742  1  0.41666667  0.33333333  0.50000000  1
  Cl  Cl743  1  0.41666667  0.33333333  0.83333333  1
  Cl  Cl744  1  0.41666667  0.66666667  0.16666667  1
  Cl  Cl745  1  0.41666667  0.66666667  0.50000000  1
  Cl  Cl746  1  0.41666667  0.66666667  0.83333333  1
  Cl  Cl747  1  0.75000000  0.00000000  0.16666667  1
  Cl  Cl748  1  0.75000000  0.00000000  0.50000000  1
  Cl  Cl749  1  0.75000000  0.00000000  0.83333333  1
  Cl  Cl750  1  0.75000000  0.33333333  0.16666667  1
  Cl  Cl751  1  0.75000000  0.33333333  0.50000000  1
  Cl  Cl752  1  0.75000000  0.33333333  0.83333333  1
  Cl  Cl753  1  0.75000000  0.66666667  0.16666667  1
  Cl  Cl754  1  0.75000000  0.66666667  0.50000000  1
  Cl  Cl755  1  0.75000000  0.66666667  0.83333333  1
  Cl  Cl756  1  0.08333333  0.16666667  0.00000000  1
  Cl  Cl757  1  0.08333333  0.16666667  0.33333333  1
  Cl  Cl758  1  0.08333333  0.16666667  0.66666667  1
  Cl  Cl759  1  0.08333333  0.50000000  0.00000000  1
  Cl  Cl760  1  0.08333333  0.50000000  0.33333333  1
  Cl  Cl761  1  0.08333333  0.50000000  0.66666667  1
  Cl  Cl762  1  0.08333333  0.83333333  1.00000000  1
  Cl  Cl763  1  0.08333333  0.83333333  0.33333333  1
  Cl  Cl764  1  0.08333333  0.83333333  0.66666667  1
  Cl  Cl765  1  0.41666667  0.16666667  0.00000000  1
  Cl  Cl766  1  0.41666667  0.16666667  0.33333333  1
  Cl  Cl767  1  0.41666667  0.16666667  0.66666667  1
  Cl  Cl768  1  0.41666667  0.50000000  1.00000000  1
  Cl  Cl769  1  0.41666667  0.50000000  0.33333333  1
  Cl  Cl770  1  0.41666667  0.50000000  0.66666667  1
  Cl  Cl771  1  0.41666667  0.83333333  1.00000000  1
  Cl  Cl772  1  0.41666667  0.83333333  0.33333333  1
  Cl  Cl773  1  0.41666667  0.83333333  0.66666667  1
  Cl  Cl774  1  0.75000000  0.16666667  1.00000000  1
  Cl  Cl775  1  0.75000000  0.16666667  0.33333333  1
  Cl  Cl776  1  0.75000000  0.16666667  0.66666667  1
  Cl  Cl777  1  0.75000000  0.50000000  1.00000000  1
  Cl  Cl778  1  0.75000000  0.50000000  0.33333333  1
  Cl  Cl779  1  0.75000000  0.50000000  0.66666667  1
  Cl  Cl780  1  0.75000000  0.83333333  1.00000000  1
  Cl  Cl781  1  0.75000000  0.83333333  0.33333333  1
  Cl  Cl782  1  0.75000000  0.83333333  0.66666667  1
  Cl  Cl783  1  0.25000000  0.00000000  1.00000000  1
  Cl  Cl784  1  0.25000000  0.00000000  0.33333333  1
  Cl  Cl785  1  0.25000000  0.00000000  0.66666667  1
  Cl  Cl786  1  0.25000000  0.33333333  0.00000000  1
  Cl  Cl787  1  0.25000000  0.33333333  0.33333333  1
  Cl  Cl788  1  0.25000000  0.33333333  0.66666667  1
  Cl  Cl789  1  0.25000000  0.66666667  1.00000000  1
  Cl  Cl790  1  0.25000000  0.66666667  0.33333333  1
  Cl  Cl791  1  0.25000000  0.66666667  0.66666667  1
  Cl  Cl792  1  0.58333333  0.00000000  0.00000000  1
  Cl  Cl793  1  0.58333333  0.00000000  0.33333333  1
  Cl  Cl794  1  0.58333333  0.00000000  0.66666667  1
  Cl  Cl795  1  0.58333333  0.33333333  1.00000000  1
  Cl  Cl796  1  0.58333333  0.33333333  0.33333333  1
  Cl  Cl797  1  0.58333333  0.33333333  0.66666667  1
  Cl  Cl798  1  0.58333333  0.66666667  1.00000000  1
  Cl  Cl799  1  0.58333333  0.66666667  0.33333333  1
  Cl  Cl800  1  0.58333333  0.66666667  0.66666667  1
  Cl  Cl801  1  0.91666667  0.00000000  1.00000000  1
  Cl  Cl802  1  0.91666667  0.00000000  0.33333333  1
  Cl  Cl803  1  0.91666667  0.00000000  0.66666667  1
  Cl  Cl804  1  0.91666667  0.33333333  1.00000000  1
  Cl  Cl805  1  0.91666667  0.33333333  0.33333333  1
  Cl  Cl806  1  0.91666667  0.33333333  0.66666667  1
  Cl  Cl807  1  0.91666667  0.66666667  1.00000000  1
  Cl  Cl808  1  0.91666667  0.66666667  0.33333333  1
  Cl  Cl809  1  0.91666667  0.66666667  0.66666667  1
  Cl  Cl810  1  0.16666667  0.25000000  0.16666667  1
  Cl  Cl811  1  0.16666667  0.25000000  0.50000000  1
  Cl  Cl812  1  0.16666667  0.25000000  0.83333333  1
  Cl  Cl813  1  0.16666667  0.58333333  0.16666667  1
  Cl  Cl814  1  0.16666667  0.58333333  0.50000000  1
  Cl  Cl815  1  0.16666667  0.58333333  0.83333333  1
  Cl  Cl816  1  0.16666667  0.91666667  0.16666667  1
  Cl  Cl817  1  0.16666667  0.91666667  0.50000000  1
  Cl  Cl818  1  0.16666667  0.91666667  0.83333333  1
  Cl  Cl819  1  0.50000000  0.25000000  0.16666667  1
  Cl  Cl820  1  0.50000000  0.25000000  0.50000000  1
  Cl  Cl821  1  0.50000000  0.25000000  0.83333333  1
  Cl  Cl822  1  0.50000000  0.58333333  0.16666667  1
  Cl  Cl823  1  0.50000000  0.58333333  0.50000000  1
  Cl  Cl824  1  0.50000000  0.58333333  0.83333333  1
  Cl  Cl825  1  0.50000000  0.91666667  0.16666667  1
  Cl  Cl826  1  0.50000000  0.91666667  0.50000000  1
  Cl  Cl827  1  0.50000000  0.91666667  0.83333333  1
  Cl  Cl828  1  0.83333333  0.25000000  0.16666667  1
  Cl  Cl829  1  0.83333333  0.25000000  0.50000000  1
  Cl  Cl830  1  0.83333333  0.25000000  0.83333333  1
  Cl  Cl831  1  0.83333333  0.58333333  0.16666667  1
  Cl  Cl832  1  0.83333333  0.58333333  0.50000000  1
  Cl  Cl833  1  0.83333333  0.58333333  0.83333333  1
  Cl  Cl834  1  0.83333333  0.91666667  0.16666667  1
  Cl  Cl835  1  0.83333333  0.91666667  0.50000000  1
  Cl  Cl836  1  0.83333333  0.91666667  0.83333333  1
  Cl  Cl837  1  0.00000000  0.08333333  0.16666667  1
  Cl  Cl838  1  0.00000000  0.08333333  0.50000000  1
  Cl  Cl839  1  0.00000000  0.08333333  0.83333333  1
  Cl  Cl840  1  0.00000000  0.41666667  0.16666667  1
  Cl  Cl841  1  0.00000000  0.41666667  0.50000000  1
  Cl  Cl842  1  0.00000000  0.41666667  0.83333333  1
  Cl  Cl843  1  0.00000000  0.75000000  0.16666667  1
  Cl  Cl844  1  0.00000000  0.75000000  0.50000000  1
  Cl  Cl845  1  0.00000000  0.75000000  0.83333333  1
  Cl  Cl846  1  0.33333333  0.08333333  0.16666667  1
  Cl  Cl847  1  0.33333333  0.08333333  0.50000000  1
  Cl  Cl848  1  0.33333333  0.08333333  0.83333333  1
  Cl  Cl849  1  0.33333333  0.41666667  0.16666667  1
  Cl  Cl850  1  0.33333333  0.41666667  0.50000000  1
  Cl  Cl851  1  0.33333333  0.41666667  0.83333333  1
  Cl  Cl852  1  0.33333333  0.75000000  0.16666667  1
  Cl  Cl853  1  0.33333333  0.75000000  0.50000000  1
  Cl  Cl854  1  0.33333333  0.75000000  0.83333333  1
  Cl  Cl855  1  0.66666667  0.08333333  0.16666667  1
  Cl  Cl856  1  0.66666667  0.08333333  0.50000000  1
  Cl  Cl857  1  0.66666667  0.08333333  0.83333333  1
  Cl  Cl858  1  0.66666667  0.41666667  0.16666667  1
  Cl  Cl859  1  0.66666667  0.41666667  0.50000000  1
  Cl  Cl860  1  0.66666667  0.41666667  0.83333333  1
  Cl  Cl861  1  0.66666667  0.75000000  0.16666667  1
  Cl  Cl862  1  0.66666667  0.75000000  0.50000000  1
  Cl  Cl863  1  0.66666667  0.75000000  0.83333333  1
  Cl  Cl864  1  0.00000000  0.25000000  1.00000000  1
  Cl  Cl865  1  0.00000000  0.25000000  0.33333333  1
  Cl  Cl866  1  0.00000000  0.25000000  0.66666667  1
  Cl  Cl867  1  0.00000000  0.58333333  0.00000000  1
  Cl  Cl868  1  0.00000000  0.58333333  0.33333333  1
  Cl  Cl869  1  0.00000000  0.58333333  0.66666667  1
  Cl  Cl870  1  0.00000000  0.91666667  1.00000000  1
  Cl  Cl871  1  0.00000000  0.91666667  0.33333333  1
  Cl  Cl872  1  0.00000000  0.91666667  0.66666667  1
  Cl  Cl873  1  0.33333333  0.25000000  0.00000000  1
  Cl  Cl874  1  0.33333333  0.25000000  0.33333333  1
  Cl  Cl875  1  0.33333333  0.25000000  0.66666667  1
  Cl  Cl876  1  0.33333333  0.58333333  1.00000000  1
  Cl  Cl877  1  0.33333333  0.58333333  0.33333333  1
  Cl  Cl878  1  0.33333333  0.58333333  0.66666667  1
  Cl  Cl879  1  0.33333333  0.91666667  1.00000000  1
  Cl  Cl880  1  0.33333333  0.91666667  0.33333333  1
  Cl  Cl881  1  0.33333333  0.91666667  0.66666667  1
  Cl  Cl882  1  0.66666667  0.25000000  1.00000000  1
  Cl  Cl883  1  0.66666667  0.25000000  0.33333333  1
  Cl  Cl884  1  0.66666667  0.25000000  0.66666667  1
  Cl  Cl885  1  0.66666667  0.58333333  1.00000000  1
  Cl  Cl886  1  0.66666667  0.58333333  0.33333333  1
  Cl  Cl887  1  0.66666667  0.58333333  0.66666667  1
  Cl  Cl888  1  0.66666667  0.91666667  1.00000000  1
  Cl  Cl889  1  0.66666667  0.91666667  0.33333333  1
  Cl  Cl890  1  0.66666667  0.91666667  0.66666667  1
  Cl  Cl891  1  0.16666667  0.08333333  1.00000000  1
  Cl  Cl892  1  0.16666667  0.08333333  0.33333333  1
  Cl  Cl893  1  0.16666667  0.08333333  0.66666667  1
  Cl  Cl894  1  0.16666667  0.41666667  0.00000000  1
  Cl  Cl895  1  0.16666667  0.41666667  0.33333333  1
  Cl  Cl896  1  0.16666667  0.41666667  0.66666667  1
  Cl  Cl897  1  0.16666667  0.75000000  1.00000000  1
  Cl  Cl898  1  0.16666667  0.75000000  0.33333333  1
  Cl  Cl899  1  0.16666667  0.75000000  0.66666667  1
  Cl  Cl900  1  0.50000000  0.08333333  0.00000000  1
  Cl  Cl901  1  0.50000000  0.08333333  0.33333333  1
  Cl  Cl902  1  0.50000000  0.08333333  0.66666667  1
  Cl  Cl903  1  0.50000000  0.41666667  1.00000000  1
  Cl  Cl904  1  0.50000000  0.41666667  0.33333333  1
  Cl  Cl905  1  0.50000000  0.41666667  0.66666667  1
  Cl  Cl906  1  0.50000000  0.75000000  1.00000000  1
  Cl  Cl907  1  0.50000000  0.75000000  0.33333333  1
  Cl  Cl908  1  0.50000000  0.75000000  0.66666667  1
  Cl  Cl909  1  0.83333333  0.08333333  1.00000000  1
  Cl  Cl910  1  0.83333333  0.08333333  0.33333333  1
  Cl  Cl911  1  0.83333333  0.08333333  0.66666667  1
  Cl  Cl912  1  0.83333333  0.41666667  1.00000000  1
  Cl  Cl913  1  0.83333333  0.41666667  0.33333333  1
  Cl  Cl914  1  0.83333333  0.41666667  0.66666667  1
  Cl  Cl915  1  0.83333333  0.75000000  1.00000000  1
  Cl  Cl916  1  0.83333333  0.75000000  0.33333333  1
  Cl  Cl917  1  0.83333333  0.75000000  0.66666667  1
  Cl  Cl918  1  0.16666667  0.16666667  0.08333333  1
  Cl  Cl919  1  0.16666667  0.16666667  0.41666667  1
  Cl  Cl920  1  0.16666667  0.16666667  0.75000000  1
  Cl  Cl921  1  0.16666667  0.50000000  0.08333333  1
  Cl  Cl922  1  0.16666667  0.50000000  0.41666667  1
  Cl  Cl923  1  0.16666667  0.50000000  0.75000000  1
  Cl  Cl924  1  0.16666667  0.83333333  0.08333333  1
  Cl  Cl925  1  0.16666667  0.83333333  0.41666667  1
  Cl  Cl926  1  0.16666667  0.83333333  0.75000000  1
  Cl  Cl927  1  0.50000000  0.16666667  0.08333333  1
  Cl  Cl928  1  0.50000000  0.16666667  0.41666667  1
  Cl  Cl929  1  0.50000000  0.16666667  0.75000000  1
  Cl  Cl930  1  0.50000000  0.50000000  0.08333333  1
  Cl  Cl931  1  0.50000000  0.50000000  0.41666667  1
  Cl  Cl932  1  0.50000000  0.50000000  0.75000000  1
  Cl  Cl933  1  0.50000000  0.83333333  0.08333333  1
  Cl  Cl934  1  0.50000000  0.83333333  0.41666667  1
  Cl  Cl935  1  0.50000000  0.83333333  0.75000000  1
  Cl  Cl936  1  0.83333333  0.16666667  0.08333333  1
  Cl  Cl937  1  0.83333333  0.16666667  0.41666667  1
  Cl  Cl938  1  0.83333333  0.16666667  0.75000000  1
  Cl  Cl939  1  0.83333333  0.50000000  0.08333333  1
  Cl  Cl940  1  0.83333333  0.50000000  0.41666667  1
  Cl  Cl941  1  0.83333333  0.50000000  0.75000000  1
  Cl  Cl942  1  0.83333333  0.83333333  0.08333333  1
  Cl  Cl943  1  0.83333333  0.83333333  0.41666667  1
  Cl  Cl944  1  0.83333333  0.83333333  0.75000000  1
  Cl  Cl945  1  0.00000000  0.00000000  0.08333333  1
  Cl  Cl946  1  0.00000000  0.00000000  0.41666667  1
  Cl  Cl947  1  0.00000000  0.00000000  0.75000000  1
  Cl  Cl948  1  0.00000000  0.33333333  0.08333333  1
  Cl  Cl949  1  0.00000000  0.33333333  0.41666667  1
  Cl  Cl950  1  0.00000000  0.33333333  0.75000000  1
  Cl  Cl951  1  0.00000000  0.66666667  0.08333333  1
  Cl  Cl952  1  0.00000000  0.66666667  0.41666667  1
  Cl  Cl953  1  0.00000000  0.66666667  0.75000000  1
  Cl  Cl954  1  0.33333333  0.00000000  0.08333333  1
  Cl  Cl955  1  0.33333333  0.00000000  0.41666667  1
  Cl  Cl956  1  0.33333333  0.00000000  0.75000000  1
  Cl  Cl957  1  0.33333333  0.33333333  0.08333333  1
  Cl  Cl958  1  0.33333333  0.33333333  0.41666667  1
  Cl  Cl959  1  0.33333333  0.33333333  0.75000000  1
  Cl  Cl960  1  0.33333333  0.66666667  0.08333333  1
  Cl  Cl961  1  0.33333333  0.66666667  0.41666667  1
  Cl  Cl962  1  0.33333333  0.66666667  0.75000000  1
  Cl  Cl963  1  0.66666667  0.00000000  0.08333333  1
  Cl  Cl964  1  0.66666667  0.00000000  0.41666667  1
  Cl  Cl965  1  0.66666667  0.00000000  0.75000000  1
  Cl  Cl966  1  0.66666667  0.33333333  0.08333333  1
  Cl  Cl967  1  0.66666667  0.33333333  0.41666667  1
  Cl  Cl968  1  0.66666667  0.33333333  0.75000000  1
  Cl  Cl969  1  0.66666667  0.66666667  0.08333333  1
  Cl  Cl970  1  0.66666667  0.66666667  0.41666667  1
  Cl  Cl971  1  0.66666667  0.66666667  0.75000000  1
  Cl  Cl972  1  0.00000000  0.16666667  0.25000000  1
  Cl  Cl973  1  0.00000000  0.16666667  0.58333333  1
  Cl  Cl974  1  0.00000000  0.16666667  0.91666667  1
  Cl  Cl975  1  0.00000000  0.50000000  0.25000000  1
  Cl  Cl976  1  0.00000000  0.50000000  0.58333333  1
  Cl  Cl977  1  0.00000000  0.50000000  0.91666667  1
  Cl  Cl978  1  0.00000000  0.83333333  0.25000000  1
  Cl  Cl979  1  0.00000000  0.83333333  0.58333333  1
  Cl  Cl980  1  0.00000000  0.83333333  0.91666667  1
  Cl  Cl981  1  0.33333333  0.16666667  0.25000000  1
  Cl  Cl982  1  0.33333333  0.16666667  0.58333333  1
  Cl  Cl983  1  0.33333333  0.16666667  0.91666667  1
  Cl  Cl984  1  0.33333333  0.50000000  0.25000000  1
  Cl  Cl985  1  0.33333333  0.50000000  0.58333333  1
  Cl  Cl986  1  0.33333333  0.50000000  0.91666667  1
  Cl  Cl987  1  0.33333333  0.83333333  0.25000000  1
  Cl  Cl988  1  0.33333333  0.83333333  0.58333333  1
  Cl  Cl989  1  0.33333333  0.83333333  0.91666667  1
  Cl  Cl990  1  0.66666667  0.16666667  0.25000000  1
  Cl  Cl991  1  0.66666667  0.16666667  0.58333333  1
  Cl  Cl992  1  0.66666667  0.16666667  0.91666667  1
  Cl  Cl993  1  0.66666667  0.50000000  0.25000000  1
  Cl  Cl994  1  0.66666667  0.50000000  0.58333333  1
  Cl  Cl995  1  0.66666667  0.50000000  0.91666667  1
  Cl  Cl996  1  0.66666667  0.83333333  0.25000000  1
  Cl  Cl997  1  0.66666667  0.83333333  0.58333333  1
  Cl  Cl998  1  0.66666667  0.83333333  0.91666667  1
  Cl  Cl999  1  0.16666667  0.00000000  0.25000000  1
  Cl  Cl1000  1  0.16666667  0.00000000  0.58333333  1
  Cl  Cl1001  1  0.16666667  0.00000000  0.91666667  1
  Cl  Cl1002  1  0.16666667  0.33333333  0.25000000  1
  Cl  Cl1003  1  0.16666667  0.33333333  0.58333333  1
  Cl  Cl1004  1  0.16666667  0.33333333  0.91666667  1
  Cl  Cl1005  1  0.16666667  0.66666667  0.25000000  1
  Cl  Cl1006  1  0.16666667  0.66666667  0.58333333  1
  Cl  Cl1007  1  0.16666667  0.66666667  0.91666667  1
  Cl  Cl1008  1  0.50000000  0.00000000  0.25000000  1
  Cl  Cl1009  1  0.50000000  0.00000000  0.58333333  1
  Cl  Cl1010  1  0.50000000  0.00000000  0.91666667  1
  Cl  Cl1011  1  0.50000000  0.33333333  0.25000000  1
  Cl  Cl1012  1  0.50000000  0.33333333  0.58333333  1
  Cl  Cl1013  1  0.50000000  0.33333333  0.91666667  1
  Cl  Cl1014  1  0.50000000  0.66666667  0.25000000  1
  Cl  Cl1015  1  0.50000000  0.66666667  0.58333333  1
  Cl  Cl1016  1  0.50000000  0.66666667  0.91666667  1
  Cl  Cl1017  1  0.83333333  0.00000000  0.25000000  1
  Cl  Cl1018  1  0.83333333  0.00000000  0.58333333  1
  Cl  Cl1019  1  0.83333333  0.00000000  0.91666667  1
  Cl  Cl1020  1  0.83333333  0.33333333  0.25000000  1
  Cl  Cl1021  1  0.83333333  0.33333333  0.58333333  1
  Cl  Cl1022  1  0.83333333  0.33333333  0.91666667  1
  Cl  Cl1023  1  0.83333333  0.66666667  0.25000000  1
  Cl  Cl1024  1  0.83333333  0.66666667  0.58333333  1
  Cl  Cl1025  1  0.83333333  0.66666667  0.91666667  1
  Cl  Cl1026  1  0.16666667  0.16666667  0.25000000  1
  Cl  Cl1027  1  0.16666667  0.16666667  0.58333333  1
  Cl  Cl1028  1  0.16666667  0.16666667  0.91666667  1
  Cl  Cl1029  1  0.16666667  0.50000000  0.25000000  1
  Cl  Cl1030  1  0.16666667  0.50000000  0.58333333  1
  Cl  Cl1031  1  0.16666667  0.50000000  0.91666667  1
  Cl  Cl1032  1  0.16666667  0.83333333  0.25000000  1
  Cl  Cl1033  1  0.16666667  0.83333333  0.58333333  1
  Cl  Cl1034  1  0.16666667  0.83333333  0.91666667  1
  Cl  Cl1035  1  0.50000000  0.16666667  0.25000000  1
  Cl  Cl1036  1  0.50000000  0.16666667  0.58333333  1
  Cl  Cl1037  1  0.50000000  0.16666667  0.91666667  1
  Cl  Cl1038  1  0.50000000  0.50000000  0.25000000  1
  Cl  Cl1039  1  0.50000000  0.50000000  0.58333333  1
  Cl  Cl1040  1  0.50000000  0.50000000  0.91666667  1
  Cl  Cl1041  1  0.50000000  0.83333333  0.25000000  1
  Cl  Cl1042  1  0.50000000  0.83333333  0.58333333  1
  Cl  Cl1043  1  0.50000000  0.83333333  0.91666667  1
  Cl  Cl1044  1  0.83333333  0.16666667  0.25000000  1
  Cl  Cl1045  1  0.83333333  0.16666667  0.58333333  1
  Cl  Cl1046  1  0.83333333  0.16666667  0.91666667  1
  Cl  Cl1047  1  0.83333333  0.50000000  0.25000000  1
  Cl  Cl1048  1  0.83333333  0.50000000  0.58333333  1
  Cl  Cl1049  1  0.83333333  0.50000000  0.91666667  1
  Cl  Cl1050  1  0.83333333  0.83333333  0.25000000  1
  Cl  Cl1051  1  0.83333333  0.83333333  0.58333333  1
  Cl  Cl1052  1  0.83333333  0.83333333  0.91666667  1
  Cl  Cl1053  1  0.00000000  0.00000000  0.25000000  1
  Cl  Cl1054  1  0.00000000  0.00000000  0.58333333  1
  Cl  Cl1055  1  0.00000000  0.00000000  0.91666667  1
  Cl  Cl1056  1  0.00000000  0.33333333  0.25000000  1
  Cl  Cl1057  1  0.00000000  0.33333333  0.58333333  1
  Cl  Cl1058  1  0.00000000  0.33333333  0.91666667  1
  Cl  Cl1059  1  0.00000000  0.66666667  0.25000000  1
  Cl  Cl1060  1  0.00000000  0.66666667  0.58333333  1
  Cl  Cl1061  1  0.00000000  0.66666667  0.91666667  1
  Cl  Cl1062  1  0.33333333  0.00000000  0.25000000  1
  Cl  Cl1063  1  0.33333333  0.00000000  0.58333333  1
  Cl  Cl1064  1  0.33333333  0.00000000  0.91666667  1
  Cl  Cl1065  1  0.33333333  0.33333333  0.25000000  1
  Cl  Cl1066  1  0.33333333  0.33333333  0.58333333  1
  Cl  Cl1067  1  0.33333333  0.33333333  0.91666667  1
  Cl  Cl1068  1  0.33333333  0.66666667  0.25000000  1
  Cl  Cl1069  1  0.33333333  0.66666667  0.58333333  1
  Cl  Cl1070  1  0.33333333  0.66666667  0.91666667  1
  Cl  Cl1071  1  0.66666667  0.00000000  0.25000000  1
  Cl  Cl1072  1  0.66666667  0.00000000  0.58333333  1
  Cl  Cl1073  1  0.66666667  0.00000000  0.91666667  1
  Cl  Cl1074  1  0.66666667  0.33333333  0.25000000  1
  Cl  Cl1075  1  0.66666667  0.33333333  0.58333333  1
  Cl  Cl1076  1  0.66666667  0.33333333  0.91666667  1
  Cl  Cl1077  1  0.66666667  0.66666667  0.25000000  1
  Cl  Cl1078  1  0.66666667  0.66666667  0.58333333  1
  Cl  Cl1079  1  0.66666667  0.66666667  0.91666667  1
  Cl  Cl1080  1  0.00000000  0.16666667  0.08333333  1
  Cl  Cl1081  1  0.00000000  0.16666667  0.41666667  1
  Cl  Cl1082  1  0.00000000  0.16666667  0.75000000  1
  Cl  Cl1083  1  0.00000000  0.50000000  0.08333333  1
  Cl  Cl1084  1  0.00000000  0.50000000  0.41666667  1
  Cl  Cl1085  1  0.00000000  0.50000000  0.75000000  1
  Cl  Cl1086  1  0.00000000  0.83333333  0.08333333  1
  Cl  Cl1087  1  0.00000000  0.83333333  0.41666667  1
  Cl  Cl1088  1  0.00000000  0.83333333  0.75000000  1
  Cl  Cl1089  1  0.33333333  0.16666667  0.08333333  1
  Cl  Cl1090  1  0.33333333  0.16666667  0.41666667  1
  Cl  Cl1091  1  0.33333333  0.16666667  0.75000000  1
  Cl  Cl1092  1  0.33333333  0.50000000  0.08333333  1
  Cl  Cl1093  1  0.33333333  0.50000000  0.41666667  1
  Cl  Cl1094  1  0.33333333  0.50000000  0.75000000  1
  Cl  Cl1095  1  0.33333333  0.83333333  0.08333333  1
  Cl  Cl1096  1  0.33333333  0.83333333  0.41666667  1
  Cl  Cl1097  1  0.33333333  0.83333333  0.75000000  1
  Cl  Cl1098  1  0.66666667  0.16666667  0.08333333  1
  Cl  Cl1099  1  0.66666667  0.16666667  0.41666667  1
  Cl  Cl1100  1  0.66666667  0.16666667  0.75000000  1
  Cl  Cl1101  1  0.66666667  0.50000000  0.08333333  1
  Cl  Cl1102  1  0.66666667  0.50000000  0.41666667  1
  Cl  Cl1103  1  0.66666667  0.50000000  0.75000000  1
  Cl  Cl1104  1  0.66666667  0.83333333  0.08333333  1
  Cl  Cl1105  1  0.66666667  0.83333333  0.41666667  1
  Cl  Cl1106  1  0.66666667  0.83333333  0.75000000  1
  Cl  Cl1107  1  0.16666667  0.00000000  0.08333333  1
  Cl  Cl1108  1  0.16666667  0.00000000  0.41666667  1
  Cl  Cl1109  1  0.16666667  0.00000000  0.75000000  1
  Cl  Cl1110  1  0.16666667  0.33333333  0.08333333  1
  Cl  Cl1111  1  0.16666667  0.33333333  0.41666667  1
  Cl  Cl1112  1  0.16666667  0.33333333  0.75000000  1
  Cl  Cl1113  1  0.16666667  0.66666667  0.08333333  1
  Cl  Cl1114  1  0.16666667  0.66666667  0.41666667  1
  Cl  Cl1115  1  0.16666667  0.66666667  0.75000000  1
  Cl  Cl1116  1  0.50000000  0.00000000  0.08333333  1
  Cl  Cl1117  1  0.50000000  0.00000000  0.41666667  1
  Cl  Cl1118  1  0.50000000  0.00000000  0.75000000  1
  Cl  Cl1119  1  0.50000000  0.33333333  0.08333333  1
  Cl  Cl1120  1  0.50000000  0.33333333  0.41666667  1
  Cl  Cl1121  1  0.50000000  0.33333333  0.75000000  1
  Cl  Cl1122  1  0.50000000  0.66666667  0.08333333  1
  Cl  Cl1123  1  0.50000000  0.66666667  0.41666667  1
  Cl  Cl1124  1  0.50000000  0.66666667  0.75000000  1
  Cl  Cl1125  1  0.83333333  0.00000000  0.08333333  1
  Cl  Cl1126  1  0.83333333  0.00000000  0.41666667  1
  Cl  Cl1127  1  0.83333333  0.00000000  0.75000000  1
  Cl  Cl1128  1  0.83333333  0.33333333  0.08333333  1
  Cl  Cl1129  1  0.83333333  0.33333333  0.41666667  1
  Cl  Cl1130  1  0.83333333  0.33333333  0.75000000  1
  Cl  Cl1131  1  0.83333333  0.66666667  0.08333333  1
  Cl  Cl1132  1  0.83333333  0.66666667  0.41666667  1
  Cl  Cl1133  1  0.83333333  0.66666667  0.75000000  1
  Cl  Cl1134  1  0.16666667  0.08333333  0.16666667  1
  Cl  Cl1135  1  0.16666667  0.08333333  0.50000000  1
  Cl  Cl1136  1  0.16666667  0.08333333  0.83333333  1
  Cl  Cl1137  1  0.16666667  0.41666667  0.16666667  1
  Cl  Cl1138  1  0.16666667  0.41666667  0.50000000  1
  Cl  Cl1139  1  0.16666667  0.41666667  0.83333333  1
  Cl  Cl1140  1  0.16666667  0.75000000  0.16666667  1
  Cl  Cl1141  1  0.16666667  0.75000000  0.50000000  1
  Cl  Cl1142  1  0.16666667  0.75000000  0.83333333  1
  Cl  Cl1143  1  0.50000000  0.08333333  0.16666667  1
  Cl  Cl1144  1  0.50000000  0.08333333  0.50000000  1
  Cl  Cl1145  1  0.50000000  0.08333333  0.83333333  1
  Cl  Cl1146  1  0.50000000  0.41666667  0.16666667  1
  Cl  Cl1147  1  0.50000000  0.41666667  0.50000000  1
  Cl  Cl1148  1  0.50000000  0.41666667  0.83333333  1
  Cl  Cl1149  1  0.50000000  0.75000000  0.16666667  1
  Cl  Cl1150  1  0.50000000  0.75000000  0.50000000  1
  Cl  Cl1151  1  0.50000000  0.75000000  0.83333333  1
  Cl  Cl1152  1  0.83333333  0.08333333  0.16666667  1
  Cl  Cl1153  1  0.83333333  0.08333333  0.50000000  1
  Cl  Cl1154  1  0.83333333  0.08333333  0.83333333  1
  Cl  Cl1155  1  0.83333333  0.41666667  0.16666667  1
  Cl  Cl1156  1  0.83333333  0.41666667  0.50000000  1
  Cl  Cl1157  1  0.83333333  0.41666667  0.83333333  1
  Cl  Cl1158  1  0.83333333  0.75000000  0.16666667  1
  Cl  Cl1159  1  0.83333333  0.75000000  0.50000000  1
  Cl  Cl1160  1  0.83333333  0.75000000  0.83333333  1
  Cl  Cl1161  1  0.00000000  0.25000000  0.16666667  1
  Cl  Cl1162  1  0.00000000  0.25000000  0.50000000  1
  Cl  Cl1163  1  0.00000000  0.25000000  0.83333333  1
  Cl  Cl1164  1  0.00000000  0.58333333  0.16666667  1
  Cl  Cl1165  1  0.00000000  0.58333333  0.50000000  1
  Cl  Cl1166  1  0.00000000  0.58333333  0.83333333  1
  Cl  Cl1167  1  0.00000000  0.91666667  0.16666667  1
  Cl  Cl1168  1  0.00000000  0.91666667  0.50000000  1
  Cl  Cl1169  1  0.00000000  0.91666667  0.83333333  1
  Cl  Cl1170  1  0.33333333  0.25000000  0.16666667  1
  Cl  Cl1171  1  0.33333333  0.25000000  0.50000000  1
  Cl  Cl1172  1  0.33333333  0.25000000  0.83333333  1
  Cl  Cl1173  1  0.33333333  0.58333333  0.16666667  1
  Cl  Cl1174  1  0.33333333  0.58333333  0.50000000  1
  Cl  Cl1175  1  0.33333333  0.58333333  0.83333333  1
  Cl  Cl1176  1  0.33333333  0.91666667  0.16666667  1
  Cl  Cl1177  1  0.33333333  0.91666667  0.50000000  1
  Cl  Cl1178  1  0.33333333  0.91666667  0.83333333  1
  Cl  Cl1179  1  0.66666667  0.25000000  0.16666667  1
  Cl  Cl1180  1  0.66666667  0.25000000  0.50000000  1
  Cl  Cl1181  1  0.66666667  0.25000000  0.83333333  1
  Cl  Cl1182  1  0.66666667  0.58333333  0.16666667  1
  Cl  Cl1183  1  0.66666667  0.58333333  0.50000000  1
  Cl  Cl1184  1  0.66666667  0.58333333  0.83333333  1
  Cl  Cl1185  1  0.66666667  0.91666667  0.16666667  1
  Cl  Cl1186  1  0.66666667  0.91666667  0.50000000  1
  Cl  Cl1187  1  0.66666667  0.91666667  0.83333333  1
  Cl  Cl1188  1  0.00000000  0.08333333  0.00000000  1
  Cl  Cl1189  1  0.00000000  0.08333333  0.33333333  1
  Cl  Cl1190  1  0.00000000  0.08333333  0.66666667  1
  Cl  Cl1191  1  0.00000000  0.41666667  0.00000000  1
  Cl  Cl1192  1  0.00000000  0.41666667  0.33333333  1
  Cl  Cl1193  1  0.00000000  0.41666667  0.66666667  1
  Cl  Cl1194  1  0.00000000  0.75000000  1.00000000  1
  Cl  Cl1195  1  0.00000000  0.75000000  0.33333333  1
  Cl  Cl1196  1  0.00000000  0.75000000  0.66666667  1
  Cl  Cl1197  1  0.33333333  0.08333333  0.00000000  1
  Cl  Cl1198  1  0.33333333  0.08333333  0.33333333  1
  Cl  Cl1199  1  0.33333333  0.08333333  0.66666667  1
  Cl  Cl1200  1  0.33333333  0.41666667  1.00000000  1
  Cl  Cl1201  1  0.33333333  0.41666667  0.33333333  1
  Cl  Cl1202  1  0.33333333  0.41666667  0.66666667  1
  Cl  Cl1203  1  0.33333333  0.75000000  1.00000000  1
  Cl  Cl1204  1  0.33333333  0.75000000  0.33333333  1
  Cl  Cl1205  1  0.33333333  0.75000000  0.66666667  1
  Cl  Cl1206  1  0.66666667  0.08333333  0.00000000  1
  Cl  Cl1207  1  0.66666667  0.08333333  0.33333333  1
  Cl  Cl1208  1  0.66666667  0.08333333  0.66666667  1
  Cl  Cl1209  1  0.66666667  0.41666667  1.00000000  1
  Cl  Cl1210  1  0.66666667  0.41666667  0.33333333  1
  Cl  Cl1211  1  0.66666667  0.41666667  0.66666667  1
  Cl  Cl1212  1  0.66666667  0.75000000  1.00000000  1
  Cl  Cl1213  1  0.66666667  0.75000000  0.33333333  1
  Cl  Cl1214  1  0.66666667  0.75000000  0.66666667  1
  Cl  Cl1215  1  0.16666667  0.25000000  0.00000000  1
  Cl  Cl1216  1  0.16666667  0.25000000  0.33333333  1
  Cl  Cl1217  1  0.16666667  0.25000000  0.66666667  1
  Cl  Cl1218  1  0.16666667  0.58333333  0.00000000  1
  Cl  Cl1219  1  0.16666667  0.58333333  0.33333333  1
  Cl  Cl1220  1  0.16666667  0.58333333  0.66666667  1
  Cl  Cl1221  1  0.16666667  0.91666667  0.00000000  1
  Cl  Cl1222  1  0.16666667  0.91666667  0.33333333  1
  Cl  Cl1223  1  0.16666667  0.91666667  0.66666667  1
  Cl  Cl1224  1  0.50000000  0.25000000  1.00000000  1
  Cl  Cl1225  1  0.50000000  0.25000000  0.33333333  1
  Cl  Cl1226  1  0.50000000  0.25000000  0.66666667  1
  Cl  Cl1227  1  0.50000000  0.58333333  0.00000000  1
  Cl  Cl1228  1  0.50000000  0.58333333  0.33333333  1
  Cl  Cl1229  1  0.50000000  0.58333333  0.66666667  1
  Cl  Cl1230  1  0.50000000  0.91666667  1.00000000  1
  Cl  Cl1231  1  0.50000000  0.91666667  0.33333333  1
  Cl  Cl1232  1  0.50000000  0.91666667  0.66666667  1
  Cl  Cl1233  1  0.83333333  0.25000000  0.00000000  1
  Cl  Cl1234  1  0.83333333  0.25000000  0.33333333  1
  Cl  Cl1235  1  0.83333333  0.25000000  0.66666667  1
  Cl  Cl1236  1  0.83333333  0.58333333  1.00000000  1
  Cl  Cl1237  1  0.83333333  0.58333333  0.33333333  1
  Cl  Cl1238  1  0.83333333  0.58333333  0.66666667  1
  Cl  Cl1239  1  0.83333333  0.91666667  1.00000000  1
  Cl  Cl1240  1  0.83333333  0.91666667  0.33333333  1
  Cl  Cl1241  1  0.83333333  0.91666667  0.66666667  1
  Cl  Cl1242  1  0.08333333  0.16666667  0.16666667  1
  Cl  Cl1243  1  0.08333333  0.16666667  0.50000000  1
  Cl  Cl1244  1  0.08333333  0.16666667  0.83333333  1
  Cl  Cl1245  1  0.08333333  0.50000000  0.16666667  1
  Cl  Cl1246  1  0.08333333  0.50000000  0.50000000  1
  Cl  Cl1247  1  0.08333333  0.50000000  0.83333333  1
  Cl  Cl1248  1  0.08333333  0.83333333  0.16666667  1
  Cl  Cl1249  1  0.08333333  0.83333333  0.50000000  1
  Cl  Cl1250  1  0.08333333  0.83333333  0.83333333  1
  Cl  Cl1251  1  0.41666667  0.16666667  0.16666667  1
  Cl  Cl1252  1  0.41666667  0.16666667  0.50000000  1
  Cl  Cl1253  1  0.41666667  0.16666667  0.83333333  1
  Cl  Cl1254  1  0.41666667  0.50000000  0.16666667  1
  Cl  Cl1255  1  0.41666667  0.50000000  0.50000000  1
  Cl  Cl1256  1  0.41666667  0.50000000  0.83333333  1
  Cl  Cl1257  1  0.41666667  0.83333333  0.16666667  1
  Cl  Cl1258  1  0.41666667  0.83333333  0.50000000  1
  Cl  Cl1259  1  0.41666667  0.83333333  0.83333333  1
  Cl  Cl1260  1  0.75000000  0.16666667  0.16666667  1
  Cl  Cl1261  1  0.75000000  0.16666667  0.50000000  1
  Cl  Cl1262  1  0.75000000  0.16666667  0.83333333  1
  Cl  Cl1263  1  0.75000000  0.50000000  0.16666667  1
  Cl  Cl1264  1  0.75000000  0.50000000  0.50000000  1
  Cl  Cl1265  1  0.75000000  0.50000000  0.83333333  1
  Cl  Cl1266  1  0.75000000  0.83333333  0.16666667  1
  Cl  Cl1267  1  0.75000000  0.83333333  0.50000000  1
  Cl  Cl1268  1  0.75000000  0.83333333  0.83333333  1
  Cl  Cl1269  1  0.25000000  0.00000000  0.16666667  1
  Cl  Cl1270  1  0.25000000  0.00000000  0.50000000  1
  Cl  Cl1271  1  0.25000000  0.00000000  0.83333333  1
  Cl  Cl1272  1  0.25000000  0.33333333  0.16666667  1
  Cl  Cl1273  1  0.25000000  0.33333333  0.50000000  1
  Cl  Cl1274  1  0.25000000  0.33333333  0.83333333  1
  Cl  Cl1275  1  0.25000000  0.66666667  0.16666667  1
  Cl  Cl1276  1  0.25000000  0.66666667  0.50000000  1
  Cl  Cl1277  1  0.25000000  0.66666667  0.83333333  1
  Cl  Cl1278  1  0.58333333  0.00000000  0.16666667  1
  Cl  Cl1279  1  0.58333333  0.00000000  0.50000000  1
  Cl  Cl1280  1  0.58333333  0.00000000  0.83333333  1
  Cl  Cl1281  1  0.58333333  0.33333333  0.16666667  1
  Cl  Cl1282  1  0.58333333  0.33333333  0.50000000  1
  Cl  Cl1283  1  0.58333333  0.33333333  0.83333333  1
  Cl  Cl1284  1  0.58333333  0.66666667  0.16666667  1
  Cl  Cl1285  1  0.58333333  0.66666667  0.50000000  1
  Cl  Cl1286  1  0.58333333  0.66666667  0.83333333  1
  Cl  Cl1287  1  0.91666667  0.00000000  0.16666667  1
  Cl  Cl1288  1  0.91666667  0.00000000  0.50000000  1
  Cl  Cl1289  1  0.91666667  0.00000000  0.83333333  1
  Cl  Cl1290  1  0.91666667  0.33333333  0.16666667  1
  Cl  Cl1291  1  0.91666667  0.33333333  0.50000000  1
  Cl  Cl1292  1  0.91666667  0.33333333  0.83333333  1
  Cl  Cl1293  1  0.91666667  0.66666667  0.16666667  1
  Cl  Cl1294  1  0.91666667  0.66666667  0.50000000  1
  Cl  Cl1295  1  0.91666667  0.66666667  0.83333333  1
  Cl  Cl1296  1  0.25000000  0.16666667  1.00000000  1
  Cl  Cl1297  1  0.25000000  0.16666667  0.33333333  1
  Cl  Cl1298  1  0.25000000  0.16666667  0.66666667  1
  Cl  Cl1299  1  0.25000000  0.50000000  1.00000000  1
  Cl  Cl1300  1  0.25000000  0.50000000  0.33333333  1
  Cl  Cl1301  1  0.25000000  0.50000000  0.66666667  1
  Cl  Cl1302  1  0.25000000  0.83333333  0.00000000  1
  Cl  Cl1303  1  0.25000000  0.83333333  0.33333333  1
  Cl  Cl1304  1  0.25000000  0.83333333  0.66666667  1
  Cl  Cl1305  1  0.58333333  0.16666667  1.00000000  1
  Cl  Cl1306  1  0.58333333  0.16666667  0.33333333  1
  Cl  Cl1307  1  0.58333333  0.16666667  0.66666667  1
  Cl  Cl1308  1  0.58333333  0.50000000  0.00000000  1
  Cl  Cl1309  1  0.58333333  0.50000000  0.33333333  1
  Cl  Cl1310  1  0.58333333  0.50000000  0.66666667  1
  Cl  Cl1311  1  0.58333333  0.83333333  1.00000000  1
  Cl  Cl1312  1  0.58333333  0.83333333  0.33333333  1
  Cl  Cl1313  1  0.58333333  0.83333333  0.66666667  1
  Cl  Cl1314  1  0.91666667  0.16666667  0.00000000  1
  Cl  Cl1315  1  0.91666667  0.16666667  0.33333333  1
  Cl  Cl1316  1  0.91666667  0.16666667  0.66666667  1
  Cl  Cl1317  1  0.91666667  0.50000000  1.00000000  1
  Cl  Cl1318  1  0.91666667  0.50000000  0.33333333  1
  Cl  Cl1319  1  0.91666667  0.50000000  0.66666667  1
  Cl  Cl1320  1  0.91666667  0.83333333  1.00000000  1
  Cl  Cl1321  1  0.91666667  0.83333333  0.33333333  1
  Cl  Cl1322  1  0.91666667  0.83333333  0.66666667  1
  Cl  Cl1323  1  0.08333333  0.00000000  0.00000000  1
  Cl  Cl1324  1  0.08333333  0.00000000  0.33333333  1
  Cl  Cl1325  1  0.08333333  0.00000000  0.66666667  1
  Cl  Cl1326  1  0.08333333  0.33333333  0.00000000  1
  Cl  Cl1327  1  0.08333333  0.33333333  0.33333333  1
  Cl  Cl1328  1  0.08333333  0.33333333  0.66666667  1
  Cl  Cl1329  1  0.08333333  0.66666667  0.00000000  1
  Cl  Cl1330  1  0.08333333  0.66666667  0.33333333  1
  Cl  Cl1331  1  0.08333333  0.66666667  0.66666667  1
  Cl  Cl1332  1  0.41666667  0.00000000  1.00000000  1
  Cl  Cl1333  1  0.41666667  0.00000000  0.33333333  1
  Cl  Cl1334  1  0.41666667  0.00000000  0.66666667  1
  Cl  Cl1335  1  0.41666667  0.33333333  1.00000000  1
  Cl  Cl1336  1  0.41666667  0.33333333  0.33333333  1
  Cl  Cl1337  1  0.41666667  0.33333333  0.66666667  1
  Cl  Cl1338  1  0.41666667  0.66666667  1.00000000  1
  Cl  Cl1339  1  0.41666667  0.66666667  0.33333333  1
  Cl  Cl1340  1  0.41666667  0.66666667  0.66666667  1
  Cl  Cl1341  1  0.75000000  0.00000000  1.00000000  1
  Cl  Cl1342  1  0.75000000  0.00000000  0.33333333  1
  Cl  Cl1343  1  0.75000000  0.00000000  0.66666667  1
  Cl  Cl1344  1  0.75000000  0.33333333  1.00000000  1
  Cl  Cl1345  1  0.75000000  0.33333333  0.33333333  1
  Cl  Cl1346  1  0.75000000  0.33333333  0.66666667  1
  Cl  Cl1347  1  0.75000000  0.66666667  1.00000000  1
  Cl  Cl1348  1  0.75000000  0.66666667  0.33333333  1
  Cl  Cl1349  1  0.75000000  0.66666667  0.66666667  1
  Cl  Cl1350  1  0.08333333  0.08333333  0.08333333  1
  Cl  Cl1351  1  0.08333333  0.08333333  0.41666667  1
  Cl  Cl1352  1  0.08333333  0.08333333  0.75000000  1
  Cl  Cl1353  1  0.08333333  0.41666667  0.08333333  1
  Cl  Cl1354  1  0.08333333  0.41666667  0.41666667  1
  Cl  Cl1355  1  0.08333333  0.41666667  0.75000000  1
  Cl  Cl1356  1  0.08333333  0.75000000  0.08333333  1
  Cl  Cl1357  1  0.08333333  0.75000000  0.41666667  1
  Cl  Cl1358  1  0.08333333  0.75000000  0.75000000  1
  Cl  Cl1359  1  0.41666667  0.08333333  0.08333333  1
  Cl  Cl1360  1  0.41666667  0.08333333  0.41666667  1
  Cl  Cl1361  1  0.41666667  0.08333333  0.75000000  1
  Cl  Cl1362  1  0.41666667  0.41666667  0.08333333  1
  Cl  Cl1363  1  0.41666667  0.41666667  0.41666667  1
  Cl  Cl1364  1  0.41666667  0.41666667  0.75000000  1
  Cl  Cl1365  1  0.41666667  0.75000000  0.08333333  1
  Cl  Cl1366  1  0.41666667  0.75000000  0.41666667  1
  Cl  Cl1367  1  0.41666667  0.75000000  0.75000000  1
  Cl  Cl1368  1  0.75000000  0.08333333  0.08333333  1
  Cl  Cl1369  1  0.75000000  0.08333333  0.41666667  1
  Cl  Cl1370  1  0.75000000  0.08333333  0.75000000  1
  Cl  Cl1371  1  0.75000000  0.41666667  0.08333333  1
  Cl  Cl1372  1  0.75000000  0.41666667  0.41666667  1
  Cl  Cl1373  1  0.75000000  0.41666667  0.75000000  1
  Cl  Cl1374  1  0.75000000  0.75000000  0.08333333  1
  Cl  Cl1375  1  0.75000000  0.75000000  0.41666667  1
  Cl  Cl1376  1  0.75000000  0.75000000  0.75000000  1
  Cl  Cl1377  1  0.25000000  0.25000000  0.08333333  1
  Cl  Cl1378  1  0.25000000  0.25000000  0.41666667  1
  Cl  Cl1379  1  0.25000000  0.25000000  0.75000000  1
  Cl  Cl1380  1  0.25000000  0.58333333  0.08333333  1
  Cl  Cl1381  1  0.25000000  0.58333333  0.41666667  1
  Cl  Cl1382  1  0.25000000  0.58333333  0.75000000  1
  Cl  Cl1383  1  0.25000000  0.91666667  0.08333333  1
  Cl  Cl1384  1  0.25000000  0.91666667  0.41666667  1
  Cl  Cl1385  1  0.25000000  0.91666667  0.75000000  1
  Cl  Cl1386  1  0.58333333  0.25000000  0.08333333  1
  Cl  Cl1387  1  0.58333333  0.25000000  0.41666667  1
  Cl  Cl1388  1  0.58333333  0.25000000  0.75000000  1
  Cl  Cl1389  1  0.58333333  0.58333333  0.08333333  1
  Cl  Cl1390  1  0.58333333  0.58333333  0.41666667  1
  Cl  Cl1391  1  0.58333333  0.58333333  0.75000000  1
  Cl  Cl1392  1  0.58333333  0.91666667  0.08333333  1
  Cl  Cl1393  1  0.58333333  0.91666667  0.41666667  1
  Cl  Cl1394  1  0.58333333  0.91666667  0.75000000  1
  Cl  Cl1395  1  0.91666667  0.25000000  0.08333333  1
  Cl  Cl1396  1  0.91666667  0.25000000  0.41666667  1
  Cl  Cl1397  1  0.91666667  0.25000000  0.75000000  1
  Cl  Cl1398  1  0.91666667  0.58333333  0.08333333  1
  Cl  Cl1399  1  0.91666667  0.58333333  0.41666667  1
  Cl  Cl1400  1  0.91666667  0.58333333  0.75000000  1
  Cl  Cl1401  1  0.91666667  0.91666667  0.08333333  1
  Cl  Cl1402  1  0.91666667  0.91666667  0.41666667  1
  Cl  Cl1403  1  0.91666667  0.91666667  0.75000000  1
  Cl  Cl1404  1  0.25000000  0.08333333  0.25000000  1
  Cl  Cl1405  1  0.25000000  0.08333333  0.58333333  1
  Cl  Cl1406  1  0.25000000  0.08333333  0.91666667  1
  Cl  Cl1407  1  0.25000000  0.41666667  0.25000000  1
  Cl  Cl1408  1  0.25000000  0.41666667  0.58333333  1
  Cl  Cl1409  1  0.25000000  0.41666667  0.91666667  1
  Cl  Cl1410  1  0.25000000  0.75000000  0.25000000  1
  Cl  Cl1411  1  0.25000000  0.75000000  0.58333333  1
  Cl  Cl1412  1  0.25000000  0.75000000  0.91666667  1
  Cl  Cl1413  1  0.58333333  0.08333333  0.25000000  1
  Cl  Cl1414  1  0.58333333  0.08333333  0.58333333  1
  Cl  Cl1415  1  0.58333333  0.08333333  0.91666667  1
  Cl  Cl1416  1  0.58333333  0.41666667  0.25000000  1
  Cl  Cl1417  1  0.58333333  0.41666667  0.58333333  1
  Cl  Cl1418  1  0.58333333  0.41666667  0.91666667  1
  Cl  Cl1419  1  0.58333333  0.75000000  0.25000000  1
  Cl  Cl1420  1  0.58333333  0.75000000  0.58333333  1
  Cl  Cl1421  1  0.58333333  0.75000000  0.91666667  1
  Cl  Cl1422  1  0.91666667  0.08333333  0.25000000  1
  Cl  Cl1423  1  0.91666667  0.08333333  0.58333333  1
  Cl  Cl1424  1  0.91666667  0.08333333  0.91666667  1
  Cl  Cl1425  1  0.91666667  0.41666667  0.25000000  1
  Cl  Cl1426  1  0.91666667  0.41666667  0.58333333  1
  Cl  Cl1427  1  0.91666667  0.41666667  0.91666667  1
  Cl  Cl1428  1  0.91666667  0.75000000  0.25000000  1
  Cl  Cl1429  1  0.91666667  0.75000000  0.58333333  1
  Cl  Cl1430  1  0.91666667  0.75000000  0.91666667  1
  Cl  Cl1431  1  0.08333333  0.25000000  0.25000000  1
  Cl  Cl1432  1  0.08333333  0.25000000  0.58333333  1
  Cl  Cl1433  1  0.08333333  0.25000000  0.91666667  1
  Cl  Cl1434  1  0.08333333  0.58333333  0.25000000  1
  Cl  Cl1435  1  0.08333333  0.58333333  0.58333333  1
  Cl  Cl1436  1  0.08333333  0.58333333  0.91666667  1
  Cl  Cl1437  1  0.08333333  0.91666667  0.25000000  1
  Cl  Cl1438  1  0.08333333  0.91666667  0.58333333  1
  Cl  Cl1439  1  0.08333333  0.91666667  0.91666667  1
  Cl  Cl1440  1  0.41666667  0.25000000  0.25000000  1
  Cl  Cl1441  1  0.41666667  0.25000000  0.58333333  1
  Cl  Cl1442  1  0.41666667  0.25000000  0.91666667  1
  Cl  Cl1443  1  0.41666667  0.58333333  0.25000000  1
  Cl  Cl1444  1  0.41666667  0.58333333  0.58333333  1
  Cl  Cl1445  1  0.41666667  0.58333333  0.91666667  1
  Cl  Cl1446  1  0.41666667  0.91666667  0.25000000  1
  Cl  Cl1447  1  0.41666667  0.91666667  0.58333333  1
  Cl  Cl1448  1  0.41666667  0.91666667  0.91666667  1
  Cl  Cl1449  1  0.75000000  0.25000000  0.25000000  1
  Cl  Cl1450  1  0.75000000  0.25000000  0.58333333  1
  Cl  Cl1451  1  0.75000000  0.25000000  0.91666667  1
  Cl  Cl1452  1  0.75000000  0.58333333  0.25000000  1
  Cl  Cl1453  1  0.75000000  0.58333333  0.58333333  1
  Cl  Cl1454  1  0.75000000  0.58333333  0.91666667  1
  Cl  Cl1455  1  0.75000000  0.91666667  0.25000000  1
  Cl  Cl1456  1  0.75000000  0.91666667  0.58333333  1
  Cl  Cl1457  1  0.75000000  0.91666667  0.91666667  1
