# generated using pymatgen
data_Li6La11Sc5Cl32
_symmetry_space_group_name_H-M   'P 1'
_cell_length_a   41.61480000
_cell_length_b   41.61480000
_cell_length_c   41.61480000
_cell_angle_alpha   90.00000000
_cell_angle_beta   90.00000000
_cell_angle_gamma   90.00000000
_symmetry_Int_Tables_number   1
_chemical_formula_structural   Li6La11Sc5Cl32
_chemical_formula_sum   'Li384 La704 Sc320 Cl2048'
_cell_volume   72068.16020343
_cell_formula_units_Z   64
loop_
 _symmetry_equiv_pos_site_id
 _symmetry_equiv_pos_as_xyz
  1  'x, y, z'
loop_
 _atom_site_type_symbol
 _atom_site_label
 _atom_site_symmetry_multiplicity
 _atom_site_fract_x
 _atom_site_fract_y
 _atom_site_fract_z
 _atom_site_occupancy
  Li  Li0  1  0.96875000  0.46875000  0.21875000  1
  Li  Li1  1  0.96875000  0.46875000  0.46875000  1
  Li  Li2  1  0.96875000  0.46875000  0.96875000  1
  Li  Li3  1  0.96875000  0.96875000  0.46875000  1
  Li  Li4  1  0.96875000  0.96875000  0.96875000  1
  Li  Li5  1  0.09375000  0.34375000  0.21875000  1
  Li  Li6  1  0.09375000  0.84375000  0.21875000  1
  Li  Li7  1  0.34375000  0.09375000  0.96875000  1
  Li  Li8  1  0.59375000  0.09375000  0.46875000  1
  Li  Li9  1  0.59375000  0.34375000  0.21875000  1
  Li  Li10  1  0.59375000  0.34375000  0.71875000  1
  Li  Li11  1  0.59375000  0.34375000  0.96875000  1
  Li  Li12  1  0.59375000  0.59375000  0.21875000  1
  Li  Li13  1  0.59375000  0.59375000  0.46875000  1
  Li  Li14  1  0.59375000  0.84375000  0.46875000  1
  Li  Li15  1  0.59375000  0.84375000  0.71875000  1
  Li  Li16  1  0.84375000  0.09375000  0.21875000  1
  Li  Li17  1  0.84375000  0.84375000  0.46875000  1
  Li  Li18  1  0.84375000  0.84375000  0.96875000  1
  Li  Li19  1  0.09375000  0.96875000  0.59375000  1
  Li  Li20  1  0.09375000  0.96875000  0.84375000  1
  Li  Li21  1  0.34375000  0.21875000  0.84375000  1
  Li  Li22  1  0.34375000  0.96875000  0.84375000  1
  Li  Li23  1  0.84375000  0.71875000  0.59375000  1
  Li  Li24  1  0.21875000  0.09375000  0.09375000  1
  Li  Li25  1  0.21875000  0.09375000  0.59375000  1
  Li  Li26  1  0.46875000  0.09375000  0.34375000  1
  Li  Li27  1  0.46875000  0.34375000  0.59375000  1
  Li  Li28  1  0.46875000  0.84375000  0.34375000  1
  Li  Li29  1  0.46875000  0.84375000  0.84375000  1
  Li  Li30  1  0.71875000  0.09375000  0.09375000  1
  Li  Li31  1  0.71875000  0.09375000  0.59375000  1
  Li  Li32  1  0.71875000  0.09375000  0.84375000  1
  Li  Li33  1  0.71875000  0.84375000  0.59375000  1
  Li  Li34  1  0.96875000  0.09375000  0.34375000  1
  Li  Li35  1  0.96875000  0.09375000  0.59375000  1
  Li  Li36  1  0.96875000  0.84375000  0.84375000  1
  Li  Li37  1  0.03125000  0.28125000  0.53125000  1
  Li  Li38  1  0.03125000  0.78125000  0.78125000  1
  Li  Li39  1  0.28125000  0.03125000  0.78125000  1
  Li  Li40  1  0.28125000  0.28125000  0.28125000  1
  Li  Li41  1  0.28125000  0.28125000  0.78125000  1
  Li  Li42  1  0.53125000  0.78125000  0.28125000  1
  Li  Li43  1  0.53125000  0.78125000  0.53125000  1
  Li  Li44  1  0.78125000  0.53125000  0.03125000  1
  Li  Li45  1  0.78125000  0.53125000  0.78125000  1
  Li  Li46  1  0.15625000  0.15625000  0.28125000  1
  Li  Li47  1  0.15625000  0.15625000  0.78125000  1
  Li  Li48  1  0.15625000  0.90625000  0.78125000  1
  Li  Li49  1  0.40625000  0.15625000  0.28125000  1
  Li  Li50  1  0.40625000  0.90625000  0.28125000  1
  Li  Li51  1  0.65625000  0.15625000  0.53125000  1
  Li  Li52  1  0.65625000  0.40625000  0.28125000  1
  Li  Li53  1  0.90625000  0.15625000  0.03125000  1
  Li  Li54  1  0.90625000  0.40625000  0.53125000  1
  Li  Li55  1  0.90625000  0.65625000  0.03125000  1
  Li  Li56  1  0.15625000  0.03125000  0.90625000  1
  Li  Li57  1  0.15625000  0.53125000  0.40625000  1
  Li  Li58  1  0.40625000  0.28125000  0.15625000  1
  Li  Li59  1  0.40625000  0.53125000  0.40625000  1
  Li  Li60  1  0.40625000  0.53125000  0.65625000  1
  Li  Li61  1  0.40625000  0.53125000  0.90625000  1
  Li  Li62  1  0.40625000  0.78125000  0.15625000  1
  Li  Li63  1  0.65625000  0.28125000  0.90625000  1
  Li  Li64  1  0.65625000  0.78125000  0.65625000  1
  Li  Li65  1  0.90625000  0.03125000  0.15625000  1
  Li  Li66  1  0.90625000  0.28125000  0.65625000  1
  Li  Li67  1  0.90625000  0.78125000  0.65625000  1
  Li  Li68  1  0.28125000  0.15625000  0.15625000  1
  Li  Li69  1  0.28125000  0.65625000  0.15625000  1
  Li  Li70  1  0.53125000  0.15625000  0.65625000  1
  Li  Li71  1  0.53125000  0.40625000  0.90625000  1
  Li  Li72  1  0.53125000  0.65625000  0.40625000  1
  Li  Li73  1  0.53125000  0.90625000  0.40625000  1
  Li  Li74  1  0.78125000  0.15625000  0.65625000  1
  Li  Li75  1  0.78125000  0.65625000  0.65625000  1
  Li  Li76  1  0.06250000  0.06250000  0.00000000  1
  Li  Li77  1  0.31250000  0.06250000  0.50000000  1
  Li  Li78  1  0.31250000  0.31250000  0.25000000  1
  Li  Li79  1  0.31250000  0.81250000  0.50000000  1
  Li  Li80  1  0.56250000  0.31250000  0.25000000  1
  Li  Li81  1  0.56250000  0.56250000  0.25000000  1
  Li  Li82  1  0.81250000  0.06250000  0.75000000  1
  Li  Li83  1  0.81250000  0.31250000  0.25000000  1
  Li  Li84  1  0.81250000  0.56250000  0.25000000  1
  Li  Li85  1  0.81250000  0.56250000  0.50000000  1
  Li  Li86  1  0.81250000  0.81250000  0.25000000  1
  Li  Li87  1  0.18750000  0.18750000  0.25000000  1
  Li  Li88  1  0.18750000  0.43750000  0.25000000  1
  Li  Li89  1  0.18750000  0.43750000  0.75000000  1
  Li  Li90  1  0.18750000  0.93750000  0.25000000  1
  Li  Li91  1  0.18750000  0.93750000  0.50000000  1
  Li  Li92  1  0.43750000  0.18750000  0.00000000  1
  Li  Li93  1  0.43750000  0.68750000  0.75000000  1
  Li  Li94  1  0.43750000  0.93750000  0.75000000  1
  Li  Li95  1  0.68750000  0.68750000  0.75000000  1
  Li  Li96  1  0.68750000  0.93750000  0.50000000  1
  Li  Li97  1  0.93750000  0.18750000  0.25000000  1
  Li  Li98  1  0.93750000  0.68750000  0.50000000  1
  Li  Li99  1  0.93750000  0.68750000  0.75000000  1
  Li  Li100  1  0.18750000  0.56250000  0.12500000  1
  Li  Li101  1  0.18750000  0.56250000  0.37500000  1
  Li  Li102  1  0.18750000  0.81250000  0.12500000  1
  Li  Li103  1  0.18750000  0.81250000  0.87500000  1
  Li  Li104  1  0.43750000  0.81250000  0.12500000  1
  Li  Li105  1  0.43750000  0.81250000  0.37500000  1
  Li  Li106  1  0.68750000  0.56250000  0.37500000  1
  Li  Li107  1  0.68750000  0.81250000  0.37500000  1
  Li  Li108  1  0.93750000  0.06250000  0.87500000  1
  Li  Li109  1  0.93750000  0.31250000  0.62500000  1
  Li  Li110  1  0.93750000  0.56250000  0.87500000  1
  Li  Li111  1  0.06250000  0.18750000  0.12500000  1
  Li  Li112  1  0.06250000  0.18750000  0.87500000  1
  Li  Li113  1  0.06250000  0.43750000  0.37500000  1
  Li  Li114  1  0.31250000  0.43750000  0.37500000  1
  Li  Li115  1  0.31250000  0.68750000  0.37500000  1
  Li  Li116  1  0.31250000  0.93750000  0.12500000  1
  Li  Li117  1  0.56250000  0.68750000  0.62500000  1
  Li  Li118  1  0.56250000  0.93750000  0.12500000  1
  Li  Li119  1  0.56250000  0.93750000  0.37500000  1
  Li  Li120  1  0.81250000  0.18750000  0.87500000  1
  Li  Li121  1  0.81250000  0.43750000  0.37500000  1
  Li  Li122  1  0.81250000  0.43750000  0.62500000  1
  Li  Li123  1  0.81250000  0.68750000  0.87500000  1
  Li  Li124  1  0.06250000  0.25000000  0.31250000  1
  Li  Li125  1  0.06250000  0.25000000  0.56250000  1
  Li  Li126  1  0.06250000  0.50000000  0.31250000  1
  Li  Li127  1  0.06250000  0.50000000  0.81250000  1
  Li  Li128  1  0.31250000  0.25000000  0.31250000  1
  Li  Li129  1  0.31250000  0.25000000  0.81250000  1
  Li  Li130  1  0.31250000  0.50000000  0.06250000  1
  Li  Li131  1  0.31250000  0.50000000  0.31250000  1
  Li  Li132  1  0.31250000  0.75000000  0.06250000  1
  Li  Li133  1  0.56250000  0.00000000  0.06250000  1
  Li  Li134  1  0.56250000  0.00000000  0.56250000  1
  Li  Li135  1  0.56250000  0.00000000  0.81250000  1
  Li  Li136  1  0.56250000  0.25000000  0.06250000  1
  Li  Li137  1  0.56250000  0.50000000  0.06250000  1
  Li  Li138  1  0.56250000  0.50000000  0.31250000  1
  Li  Li139  1  0.81250000  0.25000000  0.06250000  1
  Li  Li140  1  0.81250000  0.50000000  0.06250000  1
  Li  Li141  1  0.81250000  0.75000000  0.56250000  1
  Li  Li142  1  0.18750000  0.12500000  0.06250000  1
  Li  Li143  1  0.18750000  0.12500000  0.56250000  1
  Li  Li144  1  0.18750000  0.37500000  0.56250000  1
  Li  Li145  1  0.18750000  0.62500000  0.56250000  1
  Li  Li146  1  0.43750000  0.12500000  0.06250000  1
  Li  Li147  1  0.43750000  0.37500000  0.31250000  1
  Li  Li148  1  0.43750000  0.62500000  0.06250000  1
  Li  Li149  1  0.43750000  0.87500000  0.56250000  1
  Li  Li150  1  0.93750000  0.37500000  0.31250000  1
  Li  Li151  1  0.93750000  0.62500000  0.56250000  1
  Li  Li152  1  0.93750000  0.87500000  0.81250000  1
  Li  Li153  1  0.18750000  0.75000000  0.43750000  1
  Li  Li154  1  0.18750000  0.75000000  0.68750000  1
  Li  Li155  1  0.43750000  0.75000000  0.43750000  1
  Li  Li156  1  0.68750000  0.25000000  0.18750000  1
  Li  Li157  1  0.68750000  0.50000000  0.93750000  1
  Li  Li158  1  0.93750000  0.50000000  0.68750000  1
  Li  Li159  1  0.93750000  0.75000000  0.18750000  1
  Li  Li160  1  0.06250000  0.62500000  0.18750000  1
  Li  Li161  1  0.06250000  0.87500000  0.43750000  1
  Li  Li162  1  0.31250000  0.12500000  0.18750000  1
  Li  Li163  1  0.31250000  0.62500000  0.93750000  1
  Li  Li164  1  0.31250000  0.87500000  0.18750000  1
  Li  Li165  1  0.31250000  0.87500000  0.93750000  1
  Li  Li166  1  0.56250000  0.37500000  0.93750000  1
  Li  Li167  1  0.56250000  0.62500000  0.18750000  1
  Li  Li168  1  0.56250000  0.87500000  0.93750000  1
  Li  Li169  1  0.81250000  0.37500000  0.43750000  1
  Li  Li170  1  0.81250000  0.87500000  0.18750000  1
  Li  Li171  1  0.81250000  0.87500000  0.43750000  1
  Li  Li172  1  0.81250000  0.87500000  0.93750000  1
  Li  Li173  1  0.00000000  0.31250000  0.56250000  1
  Li  Li174  1  0.25000000  0.81250000  0.56250000  1
  Li  Li175  1  0.50000000  0.06250000  0.06250000  1
  Li  Li176  1  0.75000000  0.06250000  0.06250000  1
  Li  Li177  1  0.75000000  0.31250000  0.31250000  1
  Li  Li178  1  0.75000000  0.31250000  0.81250000  1
  Li  Li179  1  0.75000000  0.56250000  0.56250000  1
  Li  Li180  1  0.75000000  0.56250000  0.81250000  1
  Li  Li181  1  0.12500000  0.68750000  0.06250000  1
  Li  Li182  1  0.12500000  0.68750000  0.56250000  1
  Li  Li183  1  0.12500000  0.93750000  0.06250000  1
  Li  Li184  1  0.12500000  0.93750000  0.31250000  1
  Li  Li185  1  0.37500000  0.93750000  0.81250000  1
  Li  Li186  1  0.62500000  0.18750000  0.06250000  1
  Li  Li187  1  0.62500000  0.18750000  0.56250000  1
  Li  Li188  1  0.62500000  0.68750000  0.06250000  1
  Li  Li189  1  0.62500000  0.68750000  0.56250000  1
  Li  Li190  1  0.62500000  0.93750000  0.56250000  1
  Li  Li191  1  0.62500000  0.93750000  0.81250000  1
  Li  Li192  1  0.87500000  0.68750000  0.56250000  1
  Li  Li193  1  0.87500000  0.68750000  0.81250000  1
  Li  Li194  1  0.12500000  0.06250000  0.43750000  1
  Li  Li195  1  0.12500000  0.31250000  0.68750000  1
  Li  Li196  1  0.12500000  0.56250000  0.43750000  1
  Li  Li197  1  0.12500000  0.56250000  0.93750000  1
  Li  Li198  1  0.12500000  0.81250000  0.43750000  1
  Li  Li199  1  0.12500000  0.81250000  0.93750000  1
  Li  Li200  1  0.37500000  0.31250000  0.43750000  1
  Li  Li201  1  0.37500000  0.31250000  0.68750000  1
  Li  Li202  1  0.37500000  0.56250000  0.68750000  1
  Li  Li203  1  0.62500000  0.31250000  0.18750000  1
  Li  Li204  1  0.62500000  0.56250000  0.43750000  1
  Li  Li205  1  0.62500000  0.81250000  0.43750000  1
  Li  Li206  1  0.62500000  0.81250000  0.68750000  1
  Li  Li207  1  0.87500000  0.06250000  0.18750000  1
  Li  Li208  1  0.87500000  0.06250000  0.43750000  1
  Li  Li209  1  0.87500000  0.56250000  0.43750000  1
  Li  Li210  1  0.87500000  0.81250000  0.18750000  1
  Li  Li211  1  0.00000000  0.68750000  0.18750000  1
  Li  Li212  1  0.00000000  0.68750000  0.68750000  1
  Li  Li213  1  0.00000000  0.68750000  0.93750000  1
  Li  Li214  1  0.00000000  0.93750000  0.43750000  1
  Li  Li215  1  0.25000000  0.43750000  0.18750000  1
  Li  Li216  1  0.25000000  0.43750000  0.43750000  1
  Li  Li217  1  0.25000000  0.43750000  0.93750000  1
  Li  Li218  1  0.25000000  0.68750000  0.93750000  1
  Li  Li219  1  0.25000000  0.93750000  0.18750000  1
  Li  Li220  1  0.50000000  0.93750000  0.43750000  1
  Li  Li221  1  0.50000000  0.93750000  0.93750000  1
  Li  Li222  1  0.75000000  0.18750000  0.93750000  1
  Li  Li223  1  0.75000000  0.43750000  0.18750000  1
  Li  Li224  1  0.75000000  0.43750000  0.68750000  1
  Li  Li225  1  0.75000000  0.68750000  0.43750000  1
  Li  Li226  1  0.75000000  0.93750000  0.43750000  1
  Li  Li227  1  0.00000000  0.00000000  0.00000000  1
  Li  Li228  1  0.00000000  0.25000000  0.25000000  1
  Li  Li229  1  0.00000000  0.25000000  0.75000000  1
  Li  Li230  1  0.00000000  0.50000000  0.50000000  1
  Li  Li231  1  0.00000000  0.75000000  0.25000000  1
  Li  Li232  1  0.25000000  0.00000000  0.75000000  1
  Li  Li233  1  0.25000000  0.50000000  0.50000000  1
  Li  Li234  1  0.25000000  0.75000000  0.00000000  1
  Li  Li235  1  0.25000000  0.75000000  0.50000000  1
  Li  Li236  1  0.50000000  0.00000000  0.25000000  1
  Li  Li237  1  0.50000000  0.25000000  0.25000000  1
  Li  Li238  1  0.50000000  0.50000000  0.25000000  1
  Li  Li239  1  0.50000000  0.75000000  0.50000000  1
  Li  Li240  1  0.75000000  0.00000000  0.25000000  1
  Li  Li241  1  0.75000000  0.25000000  0.25000000  1
  Li  Li242  1  0.12500000  0.37500000  0.50000000  1
  Li  Li243  1  0.12500000  0.87500000  0.00000000  1
  Li  Li244  1  0.12500000  0.87500000  0.75000000  1
  Li  Li245  1  0.37500000  0.12500000  0.50000000  1
  Li  Li246  1  0.37500000  0.12500000  0.75000000  1
  Li  Li247  1  0.37500000  0.37500000  0.00000000  1
  Li  Li248  1  0.37500000  0.37500000  0.75000000  1
  Li  Li249  1  0.37500000  0.87500000  0.00000000  1
  Li  Li250  1  0.37500000  0.87500000  0.25000000  1
  Li  Li251  1  0.37500000  0.87500000  0.75000000  1
  Li  Li252  1  0.62500000  0.12500000  0.00000000  1
  Li  Li253  1  0.62500000  0.12500000  0.25000000  1
  Li  Li254  1  0.62500000  0.12500000  0.50000000  1
  Li  Li255  1  0.62500000  0.37500000  0.00000000  1
  Li  Li256  1  0.62500000  0.62500000  0.00000000  1
  Li  Li257  1  0.62500000  0.62500000  0.75000000  1
  Li  Li258  1  0.87500000  0.12500000  0.50000000  1
  Li  Li259  1  0.87500000  0.37500000  0.00000000  1
  Li  Li260  1  0.87500000  0.62500000  0.75000000  1
  Li  Li261  1  0.87500000  0.87500000  0.25000000  1
  Li  Li262  1  0.12500000  0.00000000  0.37500000  1
  Li  Li263  1  0.12500000  0.75000000  0.37500000  1
  Li  Li264  1  0.12500000  0.75000000  0.87500000  1
  Li  Li265  1  0.37500000  0.25000000  0.87500000  1
  Li  Li266  1  0.37500000  0.50000000  0.62500000  1
  Li  Li267  1  0.37500000  0.75000000  0.62500000  1
  Li  Li268  1  0.87500000  0.25000000  0.62500000  1
  Li  Li269  1  0.87500000  0.25000000  0.87500000  1
  Li  Li270  1  0.87500000  0.75000000  0.37500000  1
  Li  Li271  1  0.87500000  0.75000000  0.87500000  1
  Li  Li272  1  0.00000000  0.37500000  0.37500000  1
  Li  Li273  1  0.00000000  0.37500000  0.62500000  1
  Li  Li274  1  0.00000000  0.37500000  0.87500000  1
  Li  Li275  1  0.00000000  0.62500000  0.37500000  1
  Li  Li276  1  0.00000000  0.62500000  0.62500000  1
  Li  Li277  1  0.25000000  0.62500000  0.37500000  1
  Li  Li278  1  0.25000000  0.87500000  0.37500000  1
  Li  Li279  1  0.50000000  0.12500000  0.12500000  1
  Li  Li280  1  0.50000000  0.12500000  0.87500000  1
  Li  Li281  1  0.50000000  0.37500000  0.87500000  1
  Li  Li282  1  0.50000000  0.87500000  0.12500000  1
  Li  Li283  1  0.75000000  0.37500000  0.87500000  1
  Li  Li284  1  0.75000000  0.62500000  0.62500000  1
  Li  Li285  1  0.75000000  0.87500000  0.37500000  1
  Li  Li286  1  0.46875000  0.65625000  0.65625000  1
  Li  Li287  1  0.09375000  0.03125000  0.40625000  1
  Li  Li288  1  0.59375000  0.53125000  0.40625000  1
  Li  Li289  1  0.59375000  0.65625000  0.53125000  1
  Li  Li290  1  0.59375000  0.90625000  0.03125000  1
  Li  Li291  1  0.21875000  0.78125000  0.03125000  1
  Li  Li292  1  0.65625000  0.71875000  0.40625000  1
  Li  Li293  1  0.65625000  0.71875000  0.90625000  1
  Li  Li294  1  0.90625000  0.46875000  0.40625000  1
  Li  Li295  1  0.03125000  0.84375000  0.90625000  1
  Li  Li296  1  0.28125000  0.96875000  0.28125000  1
  Li  Li297  1  0.53125000  0.21875000  0.03125000  1
  Li  Li298  1  0.78125000  0.46875000  0.78125000  1
  Li  Li299  1  0.65625000  0.09375000  0.03125000  1
  Li  Li300  1  0.90625000  0.09375000  0.03125000  1
  Li  Li301  1  0.15625000  0.15625000  0.09375000  1
  Li  Li302  1  0.15625000  0.40625000  0.09375000  1
  Li  Li303  1  0.15625000  0.65625000  0.34375000  1
  Li  Li304  1  0.15625000  0.90625000  0.34375000  1
  Li  Li305  1  0.90625000  0.40625000  0.59375000  1
  Li  Li306  1  0.90625000  0.65625000  0.34375000  1
  Li  Li307  1  0.53125000  0.53125000  0.59375000  1
  Li  Li308  1  0.53125000  0.78125000  0.84375000  1
  Li  Li309  1  0.03125000  0.40625000  0.21875000  1
  Li  Li310  1  0.28125000  0.90625000  0.96875000  1
  Li  Li311  1  0.78125000  0.40625000  0.21875000  1
  Li  Li312  1  0.15625000  0.65625000  0.46875000  1
  Li  Li313  1  0.65625000  0.65625000  0.21875000  1
  Li  Li314  1  0.28125000  0.03125000  0.21875000  1
  Li  Li315  1  0.28125000  0.28125000  0.21875000  1
  Li  Li316  1  0.28125000  0.78125000  0.21875000  1
  Li  Li317  1  0.78125000  0.03125000  0.96875000  1
  Li  Li318  1  0.78125000  0.78125000  0.46875000  1
  Li  Li319  1  0.28125000  0.15625000  0.59375000  1
  Li  Li320  1  0.90625000  0.53125000  0.59375000  1
  Li  Li321  1  0.15625000  0.34375000  0.15625000  1
  Li  Li322  1  0.90625000  0.34375000  0.15625000  1
  Li  Li323  1  0.03125000  0.46875000  0.15625000  1
  Li  Li324  1  0.03125000  0.71875000  0.65625000  1
  Li  Li325  1  0.53125000  0.46875000  0.40625000  1
  Li  Li326  1  0.53125000  0.96875000  0.90625000  1
  Li  Li327  1  0.03125000  0.34375000  0.28125000  1
  Li  Li328  1  0.28125000  0.09375000  0.53125000  1
  Li  Li329  1  0.78125000  0.34375000  0.53125000  1
  Li  Li330  1  0.65625000  0.46875000  0.03125000  1
  Li  Li331  1  0.90625000  0.46875000  0.53125000  1
  Li  Li332  1  0.09375000  0.40625000  0.90625000  1
  Li  Li333  1  0.34375000  0.90625000  0.90625000  1
  Li  Li334  1  0.84375000  0.15625000  0.65625000  1
  Li  Li335  1  0.21875000  0.15625000  0.78125000  1
  Li  Li336  1  0.46875000  0.65625000  0.03125000  1
  Li  Li337  1  0.71875000  0.15625000  0.78125000  1
  Li  Li338  1  0.59375000  0.53125000  0.78125000  1
  Li  Li339  1  0.40625000  0.09375000  0.34375000  1
  Li  Li340  1  0.53125000  0.34375000  0.46875000  1
  Li  Li341  1  0.78125000  0.84375000  0.96875000  1
  Li  Li342  1  0.15625000  0.71875000  0.71875000  1
  Li  Li343  1  0.90625000  0.71875000  0.46875000  1
  Li  Li344  1  0.90625000  0.96875000  0.71875000  1
  Li  Li345  1  0.21875000  0.40625000  0.96875000  1
  Li  Li346  1  0.46875000  0.90625000  0.21875000  1
  Li  Li347  1  0.71875000  0.15625000  0.96875000  1
  Li  Li348  1  0.71875000  0.40625000  0.71875000  1
  Li  Li349  1  0.71875000  0.90625000  0.46875000  1
  Li  Li350  1  0.71875000  0.90625000  0.96875000  1
  Li  Li351  1  0.59375000  0.53125000  0.46875000  1
  Li  Li352  1  0.59375000  0.53125000  0.96875000  1
  Li  Li353  1  0.34375000  0.34375000  0.03125000  1
  Li  Li354  1  0.59375000  0.84375000  0.03125000  1
  Li  Li355  1  0.59375000  0.84375000  0.28125000  1
  Li  Li356  1  0.46875000  0.21875000  0.78125000  1
  Li  Li357  1  0.46875000  0.96875000  0.28125000  1
  Li  Li358  1  0.71875000  0.71875000  0.28125000  1
  Li  Li359  1  0.21875000  0.84375000  0.65625000  1
  Li  Li360  1  0.46875000  0.34375000  0.40625000  1
  Li  Li361  1  0.96875000  0.84375000  0.15625000  1
  Li  Li362  1  0.34375000  0.46875000  0.40625000  1
  Li  Li363  1  0.59375000  0.71875000  0.90625000  1
  Li  Li364  1  0.84375000  0.96875000  0.90625000  1
  Li  Li365  1  0.34375000  0.34375000  0.65625000  1
  Li  Li366  1  0.46875000  0.46875000  0.40625000  1
  Li  Li367  1  0.71875000  0.34375000  0.28125000  1
  Li  Li368  1  0.71875000  0.59375000  0.53125000  1
  Li  Li369  1  0.96875000  0.84375000  0.53125000  1
  Li  Li370  1  0.34375000  0.28125000  0.84375000  1
  Li  Li371  1  0.34375000  0.53125000  0.09375000  1
  Li  Li372  1  0.59375000  0.03125000  0.09375000  1
  Li  Li373  1  0.96875000  0.65625000  0.59375000  1
  Li  Li374  1  0.71875000  0.28125000  0.46875000  1
  Li  Li375  1  0.59375000  0.15625000  0.21875000  1
  Li  Li376  1  0.84375000  0.15625000  0.96875000  1
  Li  Li377  1  0.84375000  0.90625000  0.96875000  1
  Li  Li378  1  0.53125000  0.09375000  0.09375000  1
  Li  Li379  1  0.53125000  0.84375000  0.84375000  1
  Li  Li380  1  0.40625000  0.71875000  0.34375000  1
  Li  Li381  1  0.65625000  0.21875000  0.34375000  1
  Li  Li382  1  0.28125000  0.46875000  0.21875000  1
  Li  Li383  1  0.53125000  0.21875000  0.96875000  1
  La  La384  1  0.12500000  0.12500000  0.12500000  1
  La  La385  1  0.12500000  0.12500000  0.37500000  1
  La  La386  1  0.12500000  0.12500000  0.62500000  1
  La  La387  1  0.12500000  0.12500000  0.87500000  1
  La  La388  1  0.12500000  0.37500000  0.37500000  1
  La  La389  1  0.12500000  0.37500000  0.62500000  1
  La  La390  1  0.12500000  0.37500000  0.87500000  1
  La  La391  1  0.12500000  0.62500000  0.62500000  1
  La  La392  1  0.12500000  0.62500000  0.87500000  1
  La  La393  1  0.12500000  0.87500000  0.37500000  1
  La  La394  1  0.12500000  0.87500000  0.62500000  1
  La  La395  1  0.12500000  0.87500000  0.87500000  1
  La  La396  1  0.37500000  0.12500000  0.12500000  1
  La  La397  1  0.37500000  0.12500000  0.37500000  1
  La  La398  1  0.37500000  0.12500000  0.62500000  1
  La  La399  1  0.37500000  0.12500000  0.87500000  1
  La  La400  1  0.37500000  0.37500000  0.37500000  1
  La  La401  1  0.37500000  0.37500000  0.62500000  1
  La  La402  1  0.37500000  0.37500000  0.87500000  1
  La  La403  1  0.37500000  0.62500000  0.12500000  1
  La  La404  1  0.37500000  0.62500000  0.37500000  1
  La  La405  1  0.37500000  0.62500000  0.87500000  1
  La  La406  1  0.37500000  0.87500000  0.12500000  1
  La  La407  1  0.37500000  0.87500000  0.37500000  1
  La  La408  1  0.62500000  0.12500000  0.12500000  1
  La  La409  1  0.62500000  0.12500000  0.37500000  1
  La  La410  1  0.62500000  0.12500000  0.62500000  1
  La  La411  1  0.62500000  0.12500000  0.87500000  1
  La  La412  1  0.62500000  0.37500000  0.12500000  1
  La  La413  1  0.62500000  0.37500000  0.37500000  1
  La  La414  1  0.62500000  0.37500000  0.87500000  1
  La  La415  1  0.62500000  0.62500000  0.12500000  1
  La  La416  1  0.62500000  0.62500000  0.62500000  1
  La  La417  1  0.62500000  0.62500000  0.87500000  1
  La  La418  1  0.62500000  0.87500000  0.12500000  1
  La  La419  1  0.62500000  0.87500000  0.37500000  1
  La  La420  1  0.62500000  0.87500000  0.62500000  1
  La  La421  1  0.87500000  0.12500000  0.12500000  1
  La  La422  1  0.87500000  0.12500000  0.37500000  1
  La  La423  1  0.87500000  0.12500000  0.62500000  1
  La  La424  1  0.87500000  0.12500000  0.87500000  1
  La  La425  1  0.87500000  0.37500000  0.12500000  1
  La  La426  1  0.87500000  0.37500000  0.37500000  1
  La  La427  1  0.87500000  0.37500000  0.62500000  1
  La  La428  1  0.87500000  0.37500000  0.87500000  1
  La  La429  1  0.87500000  0.62500000  0.62500000  1
  La  La430  1  0.87500000  0.87500000  0.12500000  1
  La  La431  1  0.87500000  0.87500000  0.37500000  1
  La  La432  1  0.87500000  0.87500000  0.87500000  1
  La  La433  1  0.00000000  0.00000000  0.12500000  1
  La  La434  1  0.00000000  0.00000000  0.87500000  1
  La  La435  1  0.00000000  0.25000000  0.37500000  1
  La  La436  1  0.00000000  0.25000000  0.62500000  1
  La  La437  1  0.00000000  0.25000000  0.87500000  1
  La  La438  1  0.00000000  0.50000000  0.12500000  1
  La  La439  1  0.00000000  0.50000000  0.62500000  1
  La  La440  1  0.00000000  0.50000000  0.87500000  1
  La  La441  1  0.00000000  0.75000000  0.12500000  1
  La  La442  1  0.00000000  0.75000000  0.87500000  1
  La  La443  1  0.25000000  0.00000000  0.62500000  1
  La  La444  1  0.25000000  0.00000000  0.87500000  1
  La  La445  1  0.25000000  0.25000000  0.12500000  1
  La  La446  1  0.25000000  0.25000000  0.37500000  1
  La  La447  1  0.25000000  0.25000000  0.62500000  1
  La  La448  1  0.25000000  0.25000000  0.87500000  1
  La  La449  1  0.25000000  0.50000000  0.12500000  1
  La  La450  1  0.25000000  0.50000000  0.37500000  1
  La  La451  1  0.25000000  0.50000000  0.87500000  1
  La  La452  1  0.25000000  0.75000000  0.12500000  1
  La  La453  1  0.25000000  0.75000000  0.62500000  1
  La  La454  1  0.50000000  0.00000000  0.12500000  1
  La  La455  1  0.50000000  0.00000000  0.62500000  1
  La  La456  1  0.50000000  0.00000000  0.87500000  1
  La  La457  1  0.50000000  0.25000000  0.12500000  1
  La  La458  1  0.50000000  0.25000000  0.87500000  1
  La  La459  1  0.50000000  0.50000000  0.12500000  1
  La  La460  1  0.50000000  0.50000000  0.87500000  1
  La  La461  1  0.50000000  0.75000000  0.12500000  1
  La  La462  1  0.50000000  0.75000000  0.37500000  1
  La  La463  1  0.75000000  0.00000000  0.12500000  1
  La  La464  1  0.75000000  0.00000000  0.62500000  1
  La  La465  1  0.75000000  0.00000000  0.87500000  1
  La  La466  1  0.75000000  0.25000000  0.37500000  1
  La  La467  1  0.75000000  0.25000000  0.62500000  1
  La  La468  1  0.75000000  0.25000000  0.87500000  1
  La  La469  1  0.75000000  0.50000000  0.12500000  1
  La  La470  1  0.75000000  0.50000000  0.37500000  1
  La  La471  1  0.75000000  0.50000000  0.62500000  1
  La  La472  1  0.75000000  0.50000000  0.87500000  1
  La  La473  1  0.75000000  0.75000000  0.12500000  1
  La  La474  1  0.75000000  0.75000000  0.62500000  1
  La  La475  1  0.75000000  0.75000000  0.87500000  1
  La  La476  1  0.00000000  0.12500000  0.25000000  1
  La  La477  1  0.00000000  0.12500000  0.50000000  1
  La  La478  1  0.00000000  0.12500000  0.75000000  1
  La  La479  1  0.00000000  0.37500000  0.00000000  1
  La  La480  1  0.00000000  0.37500000  0.25000000  1
  La  La481  1  0.00000000  0.37500000  0.75000000  1
  La  La482  1  0.00000000  0.62500000  0.00000000  1
  La  La483  1  0.00000000  0.62500000  0.25000000  1
  La  La484  1  0.00000000  0.62500000  0.50000000  1
  La  La485  1  0.00000000  0.62500000  0.75000000  1
  La  La486  1  0.00000000  0.87500000  0.75000000  1
  La  La487  1  0.25000000  0.12500000  0.00000000  1
  La  La488  1  0.25000000  0.12500000  0.25000000  1
  La  La489  1  0.25000000  0.12500000  0.75000000  1
  La  La490  1  0.25000000  0.37500000  0.00000000  1
  La  La491  1  0.25000000  0.37500000  0.25000000  1
  La  La492  1  0.25000000  0.37500000  0.50000000  1
  La  La493  1  0.25000000  0.62500000  0.25000000  1
  La  La494  1  0.25000000  0.62500000  0.50000000  1
  La  La495  1  0.25000000  0.87500000  0.00000000  1
  La  La496  1  0.25000000  0.87500000  0.25000000  1
  La  La497  1  0.25000000  0.87500000  0.75000000  1
  La  La498  1  0.50000000  0.12500000  0.00000000  1
  La  La499  1  0.50000000  0.12500000  0.25000000  1
  La  La500  1  0.50000000  0.12500000  0.50000000  1
  La  La501  1  0.50000000  0.12500000  0.75000000  1
  La  La502  1  0.50000000  0.37500000  0.00000000  1
  La  La503  1  0.50000000  0.37500000  0.50000000  1
  La  La504  1  0.50000000  0.37500000  0.75000000  1
  La  La505  1  0.50000000  0.62500000  0.00000000  1
  La  La506  1  0.50000000  0.62500000  0.25000000  1
  La  La507  1  0.50000000  0.62500000  0.50000000  1
  La  La508  1  0.50000000  0.62500000  0.75000000  1
  La  La509  1  0.50000000  0.87500000  0.75000000  1
  La  La510  1  0.75000000  0.12500000  0.00000000  1
  La  La511  1  0.75000000  0.12500000  0.25000000  1
  La  La512  1  0.75000000  0.12500000  0.50000000  1
  La  La513  1  0.75000000  0.37500000  0.25000000  1
  La  La514  1  0.75000000  0.37500000  0.50000000  1
  La  La515  1  0.75000000  0.37500000  0.75000000  1
  La  La516  1  0.75000000  0.62500000  0.50000000  1
  La  La517  1  0.75000000  0.62500000  0.75000000  1
  La  La518  1  0.12500000  0.00000000  0.00000000  1
  La  La519  1  0.12500000  0.00000000  0.25000000  1
  La  La520  1  0.12500000  0.00000000  0.50000000  1
  La  La521  1  0.12500000  0.00000000  0.75000000  1
  La  La522  1  0.12500000  0.25000000  0.25000000  1
  La  La523  1  0.12500000  0.25000000  0.50000000  1
  La  La524  1  0.12500000  0.25000000  0.75000000  1
  La  La525  1  0.12500000  0.50000000  0.00000000  1
  La  La526  1  0.12500000  0.50000000  0.75000000  1
  La  La527  1  0.12500000  0.75000000  0.25000000  1
  La  La528  1  0.12500000  0.75000000  0.75000000  1
  La  La529  1  0.37500000  0.00000000  0.00000000  1
  La  La530  1  0.37500000  0.00000000  0.25000000  1
  La  La531  1  0.37500000  0.00000000  0.50000000  1
  La  La532  1  0.37500000  0.00000000  0.75000000  1
  La  La533  1  0.37500000  0.25000000  0.00000000  1
  La  La534  1  0.37500000  0.25000000  0.75000000  1
  La  La535  1  0.37500000  0.50000000  0.00000000  1
  La  La536  1  0.37500000  0.50000000  0.25000000  1
  La  La537  1  0.37500000  0.50000000  0.50000000  1
  La  La538  1  0.37500000  0.50000000  0.75000000  1
  La  La539  1  0.37500000  0.75000000  0.00000000  1
  La  La540  1  0.37500000  0.75000000  0.25000000  1
  La  La541  1  0.37500000  0.75000000  0.50000000  1
  La  La542  1  0.62500000  0.00000000  0.25000000  1
  La  La543  1  0.62500000  0.00000000  0.50000000  1
  La  La544  1  0.62500000  0.00000000  0.75000000  1
  La  La545  1  0.62500000  0.25000000  0.00000000  1
  La  La546  1  0.62500000  0.25000000  0.75000000  1
  La  La547  1  0.62500000  0.50000000  0.00000000  1
  La  La548  1  0.62500000  0.50000000  0.25000000  1
  La  La549  1  0.62500000  0.50000000  0.50000000  1
  La  La550  1  0.62500000  0.75000000  0.00000000  1
  La  La551  1  0.62500000  0.75000000  0.25000000  1
  La  La552  1  0.62500000  0.75000000  0.50000000  1
  La  La553  1  0.62500000  0.75000000  0.75000000  1
  La  La554  1  0.87500000  0.00000000  0.25000000  1
  La  La555  1  0.87500000  0.00000000  0.50000000  1
  La  La556  1  0.87500000  0.25000000  0.00000000  1
  La  La557  1  0.87500000  0.25000000  0.50000000  1
  La  La558  1  0.87500000  0.25000000  0.75000000  1
  La  La559  1  0.87500000  0.50000000  0.00000000  1
  La  La560  1  0.87500000  0.50000000  0.50000000  1
  La  La561  1  0.87500000  0.50000000  0.75000000  1
  La  La562  1  0.87500000  0.75000000  0.25000000  1
  La  La563  1  0.12500000  0.06250000  0.06250000  1
  La  La564  1  0.12500000  0.06250000  0.31250000  1
  La  La565  1  0.12500000  0.06250000  0.56250000  1
  La  La566  1  0.12500000  0.31250000  0.06250000  1
  La  La567  1  0.12500000  0.31250000  0.56250000  1
  La  La568  1  0.12500000  0.31250000  0.81250000  1
  La  La569  1  0.12500000  0.56250000  0.06250000  1
  La  La570  1  0.12500000  0.56250000  0.31250000  1
  La  La571  1  0.12500000  0.56250000  0.56250000  1
  La  La572  1  0.12500000  0.56250000  0.81250000  1
  La  La573  1  0.12500000  0.81250000  0.06250000  1
  La  La574  1  0.12500000  0.81250000  0.56250000  1
  La  La575  1  0.12500000  0.81250000  0.81250000  1
  La  La576  1  0.37500000  0.06250000  0.06250000  1
  La  La577  1  0.37500000  0.06250000  0.31250000  1
  La  La578  1  0.37500000  0.06250000  0.81250000  1
  La  La579  1  0.37500000  0.31250000  0.56250000  1
  La  La580  1  0.37500000  0.31250000  0.81250000  1
  La  La581  1  0.37500000  0.56250000  0.06250000  1
  La  La582  1  0.37500000  0.56250000  0.31250000  1
  La  La583  1  0.37500000  0.56250000  0.81250000  1
  La  La584  1  0.37500000  0.81250000  0.06250000  1
  La  La585  1  0.37500000  0.81250000  0.56250000  1
  La  La586  1  0.37500000  0.81250000  0.81250000  1
  La  La587  1  0.62500000  0.06250000  0.06250000  1
  La  La588  1  0.62500000  0.06250000  0.81250000  1
  La  La589  1  0.62500000  0.31250000  0.06250000  1
  La  La590  1  0.62500000  0.31250000  0.31250000  1
  La  La591  1  0.62500000  0.31250000  0.56250000  1
  La  La592  1  0.62500000  0.31250000  0.81250000  1
  La  La593  1  0.62500000  0.56250000  0.06250000  1
  La  La594  1  0.62500000  0.56250000  0.31250000  1
  La  La595  1  0.62500000  0.56250000  0.56250000  1
  La  La596  1  0.62500000  0.81250000  0.06250000  1
  La  La597  1  0.62500000  0.81250000  0.31250000  1
  La  La598  1  0.62500000  0.81250000  0.56250000  1
  La  La599  1  0.87500000  0.06250000  0.31250000  1
  La  La600  1  0.87500000  0.06250000  0.56250000  1
  La  La601  1  0.87500000  0.06250000  0.81250000  1
  La  La602  1  0.87500000  0.31250000  0.06250000  1
  La  La603  1  0.87500000  0.31250000  0.31250000  1
  La  La604  1  0.87500000  0.31250000  0.56250000  1
  La  La605  1  0.87500000  0.31250000  0.81250000  1
  La  La606  1  0.87500000  0.56250000  0.31250000  1
  La  La607  1  0.87500000  0.56250000  0.56250000  1
  La  La608  1  0.87500000  0.81250000  0.56250000  1
  La  La609  1  0.87500000  0.81250000  0.81250000  1
  La  La610  1  0.00000000  0.18750000  0.06250000  1
  La  La611  1  0.00000000  0.18750000  0.81250000  1
  La  La612  1  0.00000000  0.43750000  0.06250000  1
  La  La613  1  0.00000000  0.43750000  0.31250000  1
  La  La614  1  0.00000000  0.43750000  0.56250000  1
  La  La615  1  0.00000000  0.43750000  0.81250000  1
  La  La616  1  0.00000000  0.68750000  0.06250000  1
  La  La617  1  0.00000000  0.68750000  0.31250000  1
  La  La618  1  0.00000000  0.68750000  0.56250000  1
  La  La619  1  0.00000000  0.68750000  0.81250000  1
  La  La620  1  0.00000000  0.93750000  0.06250000  1
  La  La621  1  0.00000000  0.93750000  0.31250000  1
  La  La622  1  0.00000000  0.93750000  0.56250000  1
  La  La623  1  0.00000000  0.93750000  0.81250000  1
  La  La624  1  0.25000000  0.18750000  0.06250000  1
  La  La625  1  0.25000000  0.18750000  0.31250000  1
  La  La626  1  0.25000000  0.18750000  0.56250000  1
  La  La627  1  0.25000000  0.18750000  0.81250000  1
  La  La628  1  0.25000000  0.43750000  0.06250000  1
  La  La629  1  0.25000000  0.43750000  0.31250000  1
  La  La630  1  0.25000000  0.43750000  0.81250000  1
  La  La631  1  0.25000000  0.68750000  0.31250000  1
  La  La632  1  0.25000000  0.68750000  0.81250000  1
  La  La633  1  0.25000000  0.93750000  0.81250000  1
  La  La634  1  0.50000000  0.18750000  0.06250000  1
  La  La635  1  0.50000000  0.18750000  0.31250000  1
  La  La636  1  0.50000000  0.18750000  0.81250000  1
  La  La637  1  0.50000000  0.43750000  0.06250000  1
  La  La638  1  0.50000000  0.43750000  0.31250000  1
  La  La639  1  0.50000000  0.43750000  0.56250000  1
  La  La640  1  0.50000000  0.68750000  0.31250000  1
  La  La641  1  0.50000000  0.68750000  0.56250000  1
  La  La642  1  0.50000000  0.68750000  0.81250000  1
  La  La643  1  0.50000000  0.93750000  0.06250000  1
  La  La644  1  0.50000000  0.93750000  0.31250000  1
  La  La645  1  0.50000000  0.93750000  0.81250000  1
  La  La646  1  0.75000000  0.18750000  0.06250000  1
  La  La647  1  0.75000000  0.18750000  0.31250000  1
  La  La648  1  0.75000000  0.18750000  0.56250000  1
  La  La649  1  0.75000000  0.18750000  0.81250000  1
  La  La650  1  0.75000000  0.43750000  0.06250000  1
  La  La651  1  0.75000000  0.43750000  0.31250000  1
  La  La652  1  0.75000000  0.43750000  0.56250000  1
  La  La653  1  0.75000000  0.68750000  0.06250000  1
  La  La654  1  0.75000000  0.68750000  0.31250000  1
  La  La655  1  0.75000000  0.68750000  0.56250000  1
  La  La656  1  0.75000000  0.68750000  0.81250000  1
  La  La657  1  0.75000000  0.93750000  0.31250000  1
  La  La658  1  0.75000000  0.93750000  0.56250000  1
  La  La659  1  0.75000000  0.93750000  0.81250000  1
  La  La660  1  0.00000000  0.06250000  0.18750000  1
  La  La661  1  0.00000000  0.06250000  0.43750000  1
  La  La662  1  0.00000000  0.06250000  0.68750000  1
  La  La663  1  0.00000000  0.31250000  0.18750000  1
  La  La664  1  0.00000000  0.31250000  0.43750000  1
  La  La665  1  0.00000000  0.31250000  0.93750000  1
  La  La666  1  0.00000000  0.56250000  0.18750000  1
  La  La667  1  0.00000000  0.56250000  0.43750000  1
  La  La668  1  0.00000000  0.56250000  0.93750000  1
  La  La669  1  0.00000000  0.81250000  0.68750000  1
  La  La670  1  0.00000000  0.81250000  0.93750000  1
  La  La671  1  0.25000000  0.06250000  0.18750000  1
  La  La672  1  0.25000000  0.06250000  0.68750000  1
  La  La673  1  0.25000000  0.06250000  0.93750000  1
  La  La674  1  0.25000000  0.31250000  0.18750000  1
  La  La675  1  0.25000000  0.56250000  0.18750000  1
  La  La676  1  0.25000000  0.56250000  0.43750000  1
  La  La677  1  0.25000000  0.56250000  0.93750000  1
  La  La678  1  0.25000000  0.81250000  0.18750000  1
  La  La679  1  0.25000000  0.81250000  0.43750000  1
  La  La680  1  0.25000000  0.81250000  0.68750000  1
  La  La681  1  0.25000000  0.81250000  0.93750000  1
  La  La682  1  0.50000000  0.06250000  0.43750000  1
  La  La683  1  0.50000000  0.06250000  0.68750000  1
  La  La684  1  0.50000000  0.31250000  0.18750000  1
  La  La685  1  0.50000000  0.31250000  0.68750000  1
  La  La686  1  0.50000000  0.31250000  0.93750000  1
  La  La687  1  0.50000000  0.56250000  0.18750000  1
  La  La688  1  0.50000000  0.56250000  0.68750000  1
  La  La689  1  0.50000000  0.56250000  0.93750000  1
  La  La690  1  0.50000000  0.81250000  0.18750000  1
  La  La691  1  0.50000000  0.81250000  0.68750000  1
  La  La692  1  0.50000000  0.81250000  0.93750000  1
  La  La693  1  0.75000000  0.06250000  0.18750000  1
  La  La694  1  0.75000000  0.06250000  0.43750000  1
  La  La695  1  0.75000000  0.06250000  0.68750000  1
  La  La696  1  0.75000000  0.06250000  0.93750000  1
  La  La697  1  0.75000000  0.31250000  0.18750000  1
  La  La698  1  0.75000000  0.31250000  0.43750000  1
  La  La699  1  0.75000000  0.31250000  0.93750000  1
  La  La700  1  0.75000000  0.56250000  0.18750000  1
  La  La701  1  0.75000000  0.56250000  0.68750000  1
  La  La702  1  0.75000000  0.56250000  0.93750000  1
  La  La703  1  0.75000000  0.81250000  0.18750000  1
  La  La704  1  0.75000000  0.81250000  0.43750000  1
  La  La705  1  0.75000000  0.81250000  0.68750000  1
  La  La706  1  0.75000000  0.81250000  0.93750000  1
  La  La707  1  0.12500000  0.18750000  0.18750000  1
  La  La708  1  0.12500000  0.18750000  0.68750000  1
  La  La709  1  0.12500000  0.43750000  0.43750000  1
  La  La710  1  0.12500000  0.43750000  0.68750000  1
  La  La711  1  0.12500000  0.43750000  0.93750000  1
  La  La712  1  0.12500000  0.68750000  0.18750000  1
  La  La713  1  0.12500000  0.68750000  0.43750000  1
  La  La714  1  0.12500000  0.68750000  0.68750000  1
  La  La715  1  0.12500000  0.93750000  0.18750000  1
  La  La716  1  0.12500000  0.93750000  0.43750000  1
  La  La717  1  0.12500000  0.93750000  0.93750000  1
  La  La718  1  0.37500000  0.18750000  0.18750000  1
  La  La719  1  0.37500000  0.18750000  0.93750000  1
  La  La720  1  0.37500000  0.43750000  0.18750000  1
  La  La721  1  0.37500000  0.43750000  0.43750000  1
  La  La722  1  0.37500000  0.43750000  0.68750000  1
  La  La723  1  0.37500000  0.43750000  0.93750000  1
  La  La724  1  0.37500000  0.68750000  0.18750000  1
  La  La725  1  0.37500000  0.68750000  0.43750000  1
  La  La726  1  0.37500000  0.68750000  0.68750000  1
  La  La727  1  0.37500000  0.93750000  0.18750000  1
  La  La728  1  0.62500000  0.18750000  0.18750000  1
  La  La729  1  0.62500000  0.18750000  0.68750000  1
  La  La730  1  0.62500000  0.18750000  0.93750000  1
  La  La731  1  0.62500000  0.43750000  0.18750000  1
  La  La732  1  0.62500000  0.43750000  0.43750000  1
  La  La733  1  0.62500000  0.43750000  0.68750000  1
  La  La734  1  0.62500000  0.68750000  0.68750000  1
  La  La735  1  0.62500000  0.93750000  0.18750000  1
  La  La736  1  0.62500000  0.93750000  0.43750000  1
  La  La737  1  0.87500000  0.18750000  0.68750000  1
  La  La738  1  0.87500000  0.43750000  0.18750000  1
  La  La739  1  0.87500000  0.43750000  0.43750000  1
  La  La740  1  0.87500000  0.43750000  0.68750000  1
  La  La741  1  0.87500000  0.43750000  0.93750000  1
  La  La742  1  0.87500000  0.68750000  0.18750000  1
  La  La743  1  0.87500000  0.68750000  0.68750000  1
  La  La744  1  0.87500000  0.93750000  0.18750000  1
  La  La745  1  0.87500000  0.93750000  0.43750000  1
  La  La746  1  0.87500000  0.93750000  0.93750000  1
  La  La747  1  0.06250000  0.12500000  0.31250000  1
  La  La748  1  0.06250000  0.12500000  0.56250000  1
  La  La749  1  0.06250000  0.12500000  0.81250000  1
  La  La750  1  0.06250000  0.37500000  0.81250000  1
  La  La751  1  0.06250000  0.62500000  0.06250000  1
  La  La752  1  0.06250000  0.62500000  0.31250000  1
  La  La753  1  0.06250000  0.62500000  0.81250000  1
  La  La754  1  0.06250000  0.87500000  0.06250000  1
  La  La755  1  0.06250000  0.87500000  0.56250000  1
  La  La756  1  0.31250000  0.12500000  0.06250000  1
  La  La757  1  0.31250000  0.12500000  0.81250000  1
  La  La758  1  0.31250000  0.37500000  0.06250000  1
  La  La759  1  0.31250000  0.62500000  0.06250000  1
  La  La760  1  0.31250000  0.62500000  0.31250000  1
  La  La761  1  0.31250000  0.62500000  0.56250000  1
  La  La762  1  0.31250000  0.87500000  0.06250000  1
  La  La763  1  0.31250000  0.87500000  0.31250000  1
  La  La764  1  0.56250000  0.37500000  0.31250000  1
  La  La765  1  0.56250000  0.37500000  0.81250000  1
  La  La766  1  0.56250000  0.87500000  0.06250000  1
  La  La767  1  0.56250000  0.87500000  0.31250000  1
  La  La768  1  0.56250000  0.87500000  0.56250000  1
  La  La769  1  0.81250000  0.12500000  0.06250000  1
  La  La770  1  0.81250000  0.12500000  0.56250000  1
  La  La771  1  0.81250000  0.12500000  0.81250000  1
  La  La772  1  0.81250000  0.37500000  0.56250000  1
  La  La773  1  0.81250000  0.37500000  0.81250000  1
  La  La774  1  0.81250000  0.87500000  0.06250000  1
  La  La775  1  0.81250000  0.87500000  0.31250000  1
  La  La776  1  0.81250000  0.87500000  0.56250000  1
  La  La777  1  0.81250000  0.87500000  0.81250000  1
  La  La778  1  0.18750000  0.00000000  0.06250000  1
  La  La779  1  0.18750000  0.00000000  0.31250000  1
  La  La780  1  0.18750000  0.00000000  0.56250000  1
  La  La781  1  0.18750000  0.00000000  0.81250000  1
  La  La782  1  0.18750000  0.25000000  0.31250000  1
  La  La783  1  0.18750000  0.25000000  0.56250000  1
  La  La784  1  0.18750000  0.25000000  0.81250000  1
  La  La785  1  0.18750000  0.50000000  0.06250000  1
  La  La786  1  0.18750000  0.50000000  0.31250000  1
  La  La787  1  0.18750000  0.50000000  0.56250000  1
  La  La788  1  0.18750000  0.50000000  0.81250000  1
  La  La789  1  0.18750000  0.75000000  0.31250000  1
  La  La790  1  0.18750000  0.75000000  0.56250000  1
  La  La791  1  0.43750000  0.00000000  0.06250000  1
  La  La792  1  0.43750000  0.00000000  0.81250000  1
  La  La793  1  0.43750000  0.25000000  0.06250000  1
  La  La794  1  0.43750000  0.25000000  0.31250000  1
  La  La795  1  0.43750000  0.25000000  0.81250000  1
  La  La796  1  0.43750000  0.50000000  0.31250000  1
  La  La797  1  0.43750000  0.50000000  0.81250000  1
  La  La798  1  0.43750000  0.75000000  0.31250000  1
  La  La799  1  0.43750000  0.75000000  0.56250000  1
  La  La800  1  0.43750000  0.75000000  0.81250000  1
  La  La801  1  0.68750000  0.00000000  0.31250000  1
  La  La802  1  0.68750000  0.00000000  0.56250000  1
  La  La803  1  0.68750000  0.25000000  0.06250000  1
  La  La804  1  0.68750000  0.25000000  0.31250000  1
  La  La805  1  0.68750000  0.25000000  0.56250000  1
  La  La806  1  0.68750000  0.25000000  0.81250000  1
  La  La807  1  0.68750000  0.50000000  0.06250000  1
  La  La808  1  0.68750000  0.50000000  0.31250000  1
  La  La809  1  0.68750000  0.75000000  0.56250000  1
  La  La810  1  0.68750000  0.75000000  0.81250000  1
  La  La811  1  0.93750000  0.00000000  0.56250000  1
  La  La812  1  0.93750000  0.00000000  0.81250000  1
  La  La813  1  0.93750000  0.25000000  0.56250000  1
  La  La814  1  0.93750000  0.50000000  0.06250000  1
  La  La815  1  0.93750000  0.50000000  0.56250000  1
  La  La816  1  0.93750000  0.50000000  0.81250000  1
  La  La817  1  0.93750000  0.75000000  0.06250000  1
  La  La818  1  0.93750000  0.75000000  0.31250000  1
  La  La819  1  0.93750000  0.75000000  0.81250000  1
  La  La820  1  0.18750000  0.12500000  0.43750000  1
  La  La821  1  0.18750000  0.12500000  0.68750000  1
  La  La822  1  0.18750000  0.12500000  0.93750000  1
  La  La823  1  0.18750000  0.37500000  0.18750000  1
  La  La824  1  0.18750000  0.62500000  0.68750000  1
  La  La825  1  0.18750000  0.87500000  0.18750000  1
  La  La826  1  0.18750000  0.87500000  0.43750000  1
  La  La827  1  0.18750000  0.87500000  0.93750000  1
  La  La828  1  0.43750000  0.12500000  0.18750000  1
  La  La829  1  0.43750000  0.12500000  0.43750000  1
  La  La830  1  0.43750000  0.12500000  0.68750000  1
  La  La831  1  0.43750000  0.12500000  0.93750000  1
  La  La832  1  0.43750000  0.37500000  0.18750000  1
  La  La833  1  0.43750000  0.37500000  0.43750000  1
  La  La834  1  0.43750000  0.37500000  0.68750000  1
  La  La835  1  0.43750000  0.62500000  0.18750000  1
  La  La836  1  0.43750000  0.62500000  0.68750000  1
  La  La837  1  0.43750000  0.87500000  0.18750000  1
  La  La838  1  0.43750000  0.87500000  0.43750000  1
  La  La839  1  0.43750000  0.87500000  0.68750000  1
  La  La840  1  0.43750000  0.87500000  0.93750000  1
  La  La841  1  0.68750000  0.12500000  0.68750000  1
  La  La842  1  0.68750000  0.12500000  0.93750000  1
  La  La843  1  0.68750000  0.37500000  0.18750000  1
  La  La844  1  0.68750000  0.37500000  0.43750000  1
  La  La845  1  0.68750000  0.37500000  0.68750000  1
  La  La846  1  0.68750000  0.62500000  0.18750000  1
  La  La847  1  0.68750000  0.62500000  0.68750000  1
  La  La848  1  0.68750000  0.87500000  0.18750000  1
  La  La849  1  0.68750000  0.87500000  0.43750000  1
  La  La850  1  0.68750000  0.87500000  0.68750000  1
  La  La851  1  0.68750000  0.87500000  0.93750000  1
  La  La852  1  0.93750000  0.12500000  0.18750000  1
  La  La853  1  0.93750000  0.12500000  0.43750000  1
  La  La854  1  0.93750000  0.12500000  0.68750000  1
  La  La855  1  0.93750000  0.12500000  0.93750000  1
  La  La856  1  0.93750000  0.37500000  0.43750000  1
  La  La857  1  0.93750000  0.37500000  0.68750000  1
  La  La858  1  0.93750000  0.37500000  0.93750000  1
  La  La859  1  0.93750000  0.62500000  0.18750000  1
  La  La860  1  0.93750000  0.62500000  0.68750000  1
  La  La861  1  0.93750000  0.87500000  0.68750000  1
  La  La862  1  0.93750000  0.87500000  0.93750000  1
  La  La863  1  0.06250000  0.00000000  0.18750000  1
  La  La864  1  0.06250000  0.00000000  0.43750000  1
  La  La865  1  0.06250000  0.25000000  0.18750000  1
  La  La866  1  0.06250000  0.25000000  0.43750000  1
  La  La867  1  0.06250000  0.25000000  0.68750000  1
  La  La868  1  0.06250000  0.25000000  0.93750000  1
  La  La869  1  0.06250000  0.50000000  0.18750000  1
  La  La870  1  0.06250000  0.50000000  0.43750000  1
  La  La871  1  0.06250000  0.50000000  0.68750000  1
  La  La872  1  0.06250000  0.50000000  0.93750000  1
  La  La873  1  0.06250000  0.75000000  0.18750000  1
  La  La874  1  0.06250000  0.75000000  0.43750000  1
  La  La875  1  0.06250000  0.75000000  0.68750000  1
  La  La876  1  0.06250000  0.75000000  0.93750000  1
  La  La877  1  0.31250000  0.25000000  0.18750000  1
  La  La878  1  0.31250000  0.25000000  0.43750000  1
  La  La879  1  0.31250000  0.25000000  0.93750000  1
  La  La880  1  0.31250000  0.50000000  0.68750000  1
  La  La881  1  0.31250000  0.50000000  0.93750000  1
  La  La882  1  0.56250000  0.00000000  0.18750000  1
  La  La883  1  0.56250000  0.00000000  0.68750000  1
  La  La884  1  0.56250000  0.00000000  0.93750000  1
  La  La885  1  0.56250000  0.25000000  0.18750000  1
  La  La886  1  0.56250000  0.25000000  0.43750000  1
  La  La887  1  0.56250000  0.25000000  0.93750000  1
  La  La888  1  0.56250000  0.50000000  0.18750000  1
  La  La889  1  0.56250000  0.50000000  0.43750000  1
  La  La890  1  0.56250000  0.50000000  0.68750000  1
  La  La891  1  0.56250000  0.75000000  0.18750000  1
  La  La892  1  0.56250000  0.75000000  0.43750000  1
  La  La893  1  0.56250000  0.75000000  0.68750000  1
  La  La894  1  0.56250000  0.75000000  0.93750000  1
  La  La895  1  0.81250000  0.00000000  0.18750000  1
  La  La896  1  0.81250000  0.00000000  0.43750000  1
  La  La897  1  0.81250000  0.00000000  0.68750000  1
  La  La898  1  0.81250000  0.00000000  0.93750000  1
  La  La899  1  0.81250000  0.25000000  0.43750000  1
  La  La900  1  0.81250000  0.25000000  0.68750000  1
  La  La901  1  0.81250000  0.25000000  0.93750000  1
  La  La902  1  0.81250000  0.50000000  0.43750000  1
  La  La903  1  0.81250000  0.75000000  0.18750000  1
  La  La904  1  0.81250000  0.75000000  0.68750000  1
  La  La905  1  0.81250000  0.75000000  0.93750000  1
  La  La906  1  0.06250000  0.06250000  0.37500000  1
  La  La907  1  0.06250000  0.06250000  0.62500000  1
  La  La908  1  0.06250000  0.31250000  0.12500000  1
  La  La909  1  0.06250000  0.31250000  0.87500000  1
  La  La910  1  0.06250000  0.56250000  0.12500000  1
  La  La911  1  0.06250000  0.56250000  0.37500000  1
  La  La912  1  0.06250000  0.56250000  0.62500000  1
  La  La913  1  0.06250000  0.56250000  0.87500000  1
  La  La914  1  0.06250000  0.81250000  0.12500000  1
  La  La915  1  0.06250000  0.81250000  0.37500000  1
  La  La916  1  0.06250000  0.81250000  0.87500000  1
  La  La917  1  0.31250000  0.06250000  0.37500000  1
  La  La918  1  0.31250000  0.06250000  0.62500000  1
  La  La919  1  0.31250000  0.31250000  0.37500000  1
  La  La920  1  0.31250000  0.31250000  0.62500000  1
  La  La921  1  0.31250000  0.31250000  0.87500000  1
  La  La922  1  0.31250000  0.56250000  0.12500000  1
  La  La923  1  0.31250000  0.56250000  0.62500000  1
  La  La924  1  0.31250000  0.56250000  0.87500000  1
  La  La925  1  0.31250000  0.81250000  0.37500000  1
  La  La926  1  0.31250000  0.81250000  0.62500000  1
  La  La927  1  0.31250000  0.81250000  0.87500000  1
  La  La928  1  0.56250000  0.06250000  0.12500000  1
  La  La929  1  0.56250000  0.06250000  0.37500000  1
  La  La930  1  0.56250000  0.06250000  0.62500000  1
  La  La931  1  0.56250000  0.06250000  0.87500000  1
  La  La932  1  0.56250000  0.31250000  0.37500000  1
  La  La933  1  0.56250000  0.31250000  0.62500000  1
  La  La934  1  0.56250000  0.31250000  0.87500000  1
  La  La935  1  0.56250000  0.56250000  0.37500000  1
  La  La936  1  0.56250000  0.56250000  0.62500000  1
  La  La937  1  0.56250000  0.81250000  0.12500000  1
  La  La938  1  0.56250000  0.81250000  0.37500000  1
  La  La939  1  0.56250000  0.81250000  0.62500000  1
  La  La940  1  0.81250000  0.06250000  0.37500000  1
  La  La941  1  0.81250000  0.06250000  0.62500000  1
  La  La942  1  0.81250000  0.06250000  0.87500000  1
  La  La943  1  0.81250000  0.31250000  0.12500000  1
  La  La944  1  0.81250000  0.31250000  0.62500000  1
  La  La945  1  0.81250000  0.31250000  0.87500000  1
  La  La946  1  0.81250000  0.56250000  0.12500000  1
  La  La947  1  0.81250000  0.56250000  0.37500000  1
  La  La948  1  0.81250000  0.56250000  0.62500000  1
  La  La949  1  0.81250000  0.56250000  0.87500000  1
  La  La950  1  0.81250000  0.81250000  0.12500000  1
  La  La951  1  0.81250000  0.81250000  0.37500000  1
  La  La952  1  0.81250000  0.81250000  0.62500000  1
  La  La953  1  0.81250000  0.81250000  0.87500000  1
  La  La954  1  0.18750000  0.18750000  0.12500000  1
  La  La955  1  0.18750000  0.18750000  0.37500000  1
  La  La956  1  0.18750000  0.18750000  0.62500000  1
  La  La957  1  0.18750000  0.43750000  0.37500000  1
  La  La958  1  0.18750000  0.68750000  0.12500000  1
  La  La959  1  0.18750000  0.68750000  0.62500000  1
  La  La960  1  0.18750000  0.68750000  0.87500000  1
  La  La961  1  0.18750000  0.93750000  0.12500000  1
  La  La962  1  0.18750000  0.93750000  0.37500000  1
  La  La963  1  0.18750000  0.93750000  0.62500000  1
  La  La964  1  0.18750000  0.93750000  0.87500000  1
  La  La965  1  0.43750000  0.18750000  0.12500000  1
  La  La966  1  0.43750000  0.18750000  0.37500000  1
  La  La967  1  0.43750000  0.18750000  0.62500000  1
  La  La968  1  0.43750000  0.18750000  0.87500000  1
  La  La969  1  0.43750000  0.43750000  0.12500000  1
  La  La970  1  0.43750000  0.43750000  0.37500000  1
  La  La971  1  0.43750000  0.43750000  0.87500000  1
  La  La972  1  0.43750000  0.68750000  0.12500000  1
  La  La973  1  0.43750000  0.68750000  0.62500000  1
  La  La974  1  0.43750000  0.68750000  0.87500000  1
  La  La975  1  0.43750000  0.93750000  0.12500000  1
  La  La976  1  0.43750000  0.93750000  0.62500000  1
  La  La977  1  0.68750000  0.18750000  0.12500000  1
  La  La978  1  0.68750000  0.18750000  0.62500000  1
  La  La979  1  0.68750000  0.18750000  0.87500000  1
  La  La980  1  0.68750000  0.43750000  0.37500000  1
  La  La981  1  0.68750000  0.43750000  0.62500000  1
  La  La982  1  0.68750000  0.68750000  0.12500000  1
  La  La983  1  0.68750000  0.68750000  0.37500000  1
  La  La984  1  0.68750000  0.68750000  0.87500000  1
  La  La985  1  0.68750000  0.93750000  0.37500000  1
  La  La986  1  0.68750000  0.93750000  0.62500000  1
  La  La987  1  0.93750000  0.18750000  0.12500000  1
  La  La988  1  0.93750000  0.18750000  0.62500000  1
  La  La989  1  0.93750000  0.18750000  0.87500000  1
  La  La990  1  0.93750000  0.43750000  0.12500000  1
  La  La991  1  0.93750000  0.43750000  0.37500000  1
  La  La992  1  0.93750000  0.43750000  0.62500000  1
  La  La993  1  0.93750000  0.43750000  0.87500000  1
  La  La994  1  0.93750000  0.68750000  0.12500000  1
  La  La995  1  0.93750000  0.68750000  0.37500000  1
  La  La996  1  0.93750000  0.68750000  0.62500000  1
  La  La997  1  0.93750000  0.68750000  0.87500000  1
  La  La998  1  0.93750000  0.93750000  0.12500000  1
  La  La999  1  0.93750000  0.93750000  0.37500000  1
  La  La1000  1  0.93750000  0.93750000  0.87500000  1
  La  La1001  1  0.18750000  0.06250000  0.25000000  1
  La  La1002  1  0.18750000  0.06250000  0.50000000  1
  La  La1003  1  0.18750000  0.06250000  0.75000000  1
  La  La1004  1  0.18750000  0.31250000  0.25000000  1
  La  La1005  1  0.18750000  0.31250000  0.75000000  1
  La  La1006  1  0.18750000  0.56250000  0.25000000  1
  La  La1007  1  0.18750000  0.56250000  0.50000000  1
  La  La1008  1  0.18750000  0.56250000  0.75000000  1
  La  La1009  1  0.18750000  0.81250000  0.25000000  1
  La  La1010  1  0.18750000  0.81250000  0.50000000  1
  La  La1011  1  0.43750000  0.06250000  0.00000000  1
  La  La1012  1  0.43750000  0.06250000  0.50000000  1
  La  La1013  1  0.43750000  0.06250000  0.75000000  1
  La  La1014  1  0.43750000  0.31250000  0.00000000  1
  La  La1015  1  0.43750000  0.31250000  0.25000000  1
  La  La1016  1  0.43750000  0.31250000  0.75000000  1
  La  La1017  1  0.43750000  0.56250000  0.00000000  1
  La  La1018  1  0.43750000  0.56250000  0.25000000  1
  La  La1019  1  0.43750000  0.56250000  0.75000000  1
  La  La1020  1  0.43750000  0.81250000  0.00000000  1
  La  La1021  1  0.43750000  0.81250000  0.50000000  1
  La  La1022  1  0.43750000  0.81250000  0.75000000  1
  La  La1023  1  0.68750000  0.06250000  0.00000000  1
  La  La1024  1  0.68750000  0.06250000  0.25000000  1
  La  La1025  1  0.68750000  0.06250000  0.75000000  1
  La  La1026  1  0.68750000  0.31250000  0.00000000  1
  La  La1027  1  0.68750000  0.31250000  0.50000000  1
  La  La1028  1  0.68750000  0.56250000  0.25000000  1
  La  La1029  1  0.68750000  0.56250000  0.50000000  1
  La  La1030  1  0.68750000  0.81250000  0.00000000  1
  La  La1031  1  0.68750000  0.81250000  0.25000000  1
  La  La1032  1  0.68750000  0.81250000  0.50000000  1
  La  La1033  1  0.68750000  0.81250000  0.75000000  1
  La  La1034  1  0.93750000  0.06250000  0.00000000  1
  La  La1035  1  0.93750000  0.06250000  0.25000000  1
  La  La1036  1  0.93750000  0.31250000  0.00000000  1
  La  La1037  1  0.93750000  0.31250000  0.25000000  1
  La  La1038  1  0.93750000  0.31250000  0.50000000  1
  La  La1039  1  0.93750000  0.31250000  0.75000000  1
  La  La1040  1  0.93750000  0.56250000  0.00000000  1
  La  La1041  1  0.93750000  0.56250000  0.25000000  1
  La  La1042  1  0.93750000  0.56250000  0.50000000  1
  La  La1043  1  0.93750000  0.56250000  0.75000000  1
  La  La1044  1  0.93750000  0.81250000  0.00000000  1
  La  La1045  1  0.93750000  0.81250000  0.25000000  1
  La  La1046  1  0.93750000  0.81250000  0.50000000  1
  La  La1047  1  0.93750000  0.81250000  0.75000000  1
  La  La1048  1  0.06250000  0.18750000  0.00000000  1
  La  La1049  1  0.06250000  0.18750000  0.50000000  1
  La  La1050  1  0.06250000  0.43750000  0.25000000  1
  La  La1051  1  0.06250000  0.43750000  0.75000000  1
  La  La1052  1  0.06250000  0.68750000  0.00000000  1
  La  La1053  1  0.06250000  0.68750000  0.25000000  1
  La  La1054  1  0.06250000  0.68750000  0.50000000  1
  La  La1055  1  0.06250000  0.68750000  0.75000000  1
  La  La1056  1  0.06250000  0.93750000  0.75000000  1
  La  La1057  1  0.31250000  0.18750000  0.25000000  1
  La  La1058  1  0.31250000  0.18750000  0.50000000  1
  La  La1059  1  0.31250000  0.18750000  0.75000000  1
  La  La1060  1  0.31250000  0.43750000  0.25000000  1
  La  La1061  1  0.31250000  0.43750000  0.75000000  1
  La  La1062  1  0.31250000  0.68750000  0.00000000  1
  La  La1063  1  0.31250000  0.68750000  0.25000000  1
  La  La1064  1  0.31250000  0.68750000  0.50000000  1
  La  La1065  1  0.31250000  0.93750000  0.25000000  1
  La  La1066  1  0.31250000  0.93750000  0.75000000  1
  La  La1067  1  0.56250000  0.43750000  0.25000000  1
  La  La1068  1  0.56250000  0.43750000  0.50000000  1
  La  La1069  1  0.56250000  0.43750000  0.75000000  1
  La  La1070  1  0.56250000  0.68750000  0.00000000  1
  La  La1071  1  0.56250000  0.68750000  0.25000000  1
  La  La1072  1  0.56250000  0.68750000  0.50000000  1
  La  La1073  1  0.56250000  0.93750000  0.25000000  1
  La  La1074  1  0.56250000  0.93750000  0.50000000  1
  La  La1075  1  0.81250000  0.18750000  0.00000000  1
  La  La1076  1  0.81250000  0.18750000  0.25000000  1
  La  La1077  1  0.81250000  0.18750000  0.50000000  1
  La  La1078  1  0.81250000  0.43750000  0.25000000  1
  La  La1079  1  0.81250000  0.43750000  0.50000000  1
  La  La1080  1  0.81250000  0.43750000  0.75000000  1
  La  La1081  1  0.81250000  0.68750000  0.00000000  1
  La  La1082  1  0.81250000  0.68750000  0.25000000  1
  La  La1083  1  0.81250000  0.68750000  0.50000000  1
  La  La1084  1  0.81250000  0.68750000  0.75000000  1
  La  La1085  1  0.81250000  0.93750000  0.25000000  1
  La  La1086  1  0.81250000  0.93750000  0.50000000  1
  La  La1087  1  0.81250000  0.93750000  0.75000000  1
  Sc  Sc1088  1  0.12500000  0.37500000  0.12500000  1
  Sc  Sc1089  1  0.12500000  0.62500000  0.12500000  1
  Sc  Sc1090  1  0.12500000  0.62500000  0.37500000  1
  Sc  Sc1091  1  0.12500000  0.87500000  0.12500000  1
  Sc  Sc1092  1  0.37500000  0.37500000  0.12500000  1
  Sc  Sc1093  1  0.37500000  0.62500000  0.62500000  1
  Sc  Sc1094  1  0.37500000  0.87500000  0.62500000  1
  Sc  Sc1095  1  0.37500000  0.87500000  0.87500000  1
  Sc  Sc1096  1  0.62500000  0.37500000  0.62500000  1
  Sc  Sc1097  1  0.62500000  0.62500000  0.37500000  1
  Sc  Sc1098  1  0.62500000  0.87500000  0.87500000  1
  Sc  Sc1099  1  0.87500000  0.62500000  0.12500000  1
  Sc  Sc1100  1  0.87500000  0.62500000  0.37500000  1
  Sc  Sc1101  1  0.87500000  0.62500000  0.87500000  1
  Sc  Sc1102  1  0.87500000  0.87500000  0.62500000  1
  Sc  Sc1103  1  0.00000000  0.00000000  0.37500000  1
  Sc  Sc1104  1  0.00000000  0.00000000  0.62500000  1
  Sc  Sc1105  1  0.00000000  0.25000000  0.12500000  1
  Sc  Sc1106  1  0.00000000  0.50000000  0.37500000  1
  Sc  Sc1107  1  0.00000000  0.75000000  0.37500000  1
  Sc  Sc1108  1  0.00000000  0.75000000  0.62500000  1
  Sc  Sc1109  1  0.25000000  0.00000000  0.12500000  1
  Sc  Sc1110  1  0.25000000  0.00000000  0.37500000  1
  Sc  Sc1111  1  0.25000000  0.50000000  0.62500000  1
  Sc  Sc1112  1  0.25000000  0.75000000  0.37500000  1
  Sc  Sc1113  1  0.25000000  0.75000000  0.87500000  1
  Sc  Sc1114  1  0.50000000  0.00000000  0.37500000  1
  Sc  Sc1115  1  0.50000000  0.25000000  0.37500000  1
  Sc  Sc1116  1  0.50000000  0.25000000  0.62500000  1
  Sc  Sc1117  1  0.50000000  0.50000000  0.37500000  1
  Sc  Sc1118  1  0.50000000  0.50000000  0.62500000  1
  Sc  Sc1119  1  0.50000000  0.75000000  0.62500000  1
  Sc  Sc1120  1  0.50000000  0.75000000  0.87500000  1
  Sc  Sc1121  1  0.75000000  0.00000000  0.37500000  1
  Sc  Sc1122  1  0.75000000  0.25000000  0.12500000  1
  Sc  Sc1123  1  0.75000000  0.75000000  0.37500000  1
  Sc  Sc1124  1  0.00000000  0.12500000  0.00000000  1
  Sc  Sc1125  1  0.00000000  0.37500000  0.50000000  1
  Sc  Sc1126  1  0.00000000  0.87500000  0.00000000  1
  Sc  Sc1127  1  0.00000000  0.87500000  0.25000000  1
  Sc  Sc1128  1  0.00000000  0.87500000  0.50000000  1
  Sc  Sc1129  1  0.25000000  0.12500000  0.50000000  1
  Sc  Sc1130  1  0.25000000  0.37500000  0.75000000  1
  Sc  Sc1131  1  0.25000000  0.62500000  0.00000000  1
  Sc  Sc1132  1  0.25000000  0.62500000  0.75000000  1
  Sc  Sc1133  1  0.25000000  0.87500000  0.50000000  1
  Sc  Sc1134  1  0.50000000  0.37500000  0.25000000  1
  Sc  Sc1135  1  0.50000000  0.87500000  0.00000000  1
  Sc  Sc1136  1  0.50000000  0.87500000  0.25000000  1
  Sc  Sc1137  1  0.50000000  0.87500000  0.50000000  1
  Sc  Sc1138  1  0.75000000  0.12500000  0.75000000  1
  Sc  Sc1139  1  0.75000000  0.37500000  0.00000000  1
  Sc  Sc1140  1  0.75000000  0.62500000  0.00000000  1
  Sc  Sc1141  1  0.75000000  0.62500000  0.25000000  1
  Sc  Sc1142  1  0.75000000  0.87500000  1.00000000  1
  Sc  Sc1143  1  0.75000000  0.87500000  0.25000000  1
  Sc  Sc1144  1  0.75000000  0.87500000  0.50000000  1
  Sc  Sc1145  1  0.75000000  0.87500000  0.75000000  1
  Sc  Sc1146  1  0.12500000  0.25000000  0.00000000  1
  Sc  Sc1147  1  0.12500000  0.50000000  0.25000000  1
  Sc  Sc1148  1  0.12500000  0.50000000  0.50000000  1
  Sc  Sc1149  1  0.12500000  0.75000000  0.00000000  1
  Sc  Sc1150  1  0.12500000  0.75000000  0.50000000  1
  Sc  Sc1151  1  0.37500000  0.25000000  0.25000000  1
  Sc  Sc1152  1  0.37500000  0.25000000  0.50000000  1
  Sc  Sc1153  1  0.37500000  0.75000000  0.75000000  1
  Sc  Sc1154  1  0.62500000  0.00000000  0.00000000  1
  Sc  Sc1155  1  0.62500000  0.25000000  0.25000000  1
  Sc  Sc1156  1  0.62500000  0.25000000  0.50000000  1
  Sc  Sc1157  1  0.62500000  0.50000000  0.75000000  1
  Sc  Sc1158  1  0.87500000  0.00000000  0.00000000  1
  Sc  Sc1159  1  0.87500000  0.00000000  0.75000000  1
  Sc  Sc1160  1  0.87500000  0.25000000  0.25000000  1
  Sc  Sc1161  1  0.87500000  0.50000000  0.25000000  1
  Sc  Sc1162  1  0.87500000  0.75000000  0.00000000  1
  Sc  Sc1163  1  0.87500000  0.75000000  0.50000000  1
  Sc  Sc1164  1  0.87500000  0.75000000  0.75000000  1
  Sc  Sc1165  1  0.12500000  0.06250000  0.81250000  1
  Sc  Sc1166  1  0.12500000  0.31250000  0.31250000  1
  Sc  Sc1167  1  0.12500000  0.81250000  0.31250000  1
  Sc  Sc1168  1  0.37500000  0.06250000  0.56250000  1
  Sc  Sc1169  1  0.37500000  0.31250000  0.06250000  1
  Sc  Sc1170  1  0.37500000  0.31250000  0.31250000  1
  Sc  Sc1171  1  0.37500000  0.56250000  0.56250000  1
  Sc  Sc1172  1  0.37500000  0.81250000  0.31250000  1
  Sc  Sc1173  1  0.62500000  0.06250000  0.31250000  1
  Sc  Sc1174  1  0.62500000  0.06250000  0.56250000  1
  Sc  Sc1175  1  0.62500000  0.56250000  0.81250000  1
  Sc  Sc1176  1  0.62500000  0.81250000  0.81250000  1
  Sc  Sc1177  1  0.87500000  0.06250000  0.06250000  1
  Sc  Sc1178  1  0.87500000  0.56250000  0.06250000  1
  Sc  Sc1179  1  0.87500000  0.56250000  0.81250000  1
  Sc  Sc1180  1  0.87500000  0.81250000  0.06250000  1
  Sc  Sc1181  1  0.87500000  0.81250000  0.31250000  1
  Sc  Sc1182  1  0.00000000  0.18750000  0.31250000  1
  Sc  Sc1183  1  0.00000000  0.18750000  0.56250000  1
  Sc  Sc1184  1  0.25000000  0.43750000  0.56250000  1
  Sc  Sc1185  1  0.25000000  0.68750000  0.06250000  1
  Sc  Sc1186  1  0.25000000  0.68750000  0.56250000  1
  Sc  Sc1187  1  0.25000000  0.93750000  0.06250000  1
  Sc  Sc1188  1  0.25000000  0.93750000  0.31250000  1
  Sc  Sc1189  1  0.25000000  0.93750000  0.56250000  1
  Sc  Sc1190  1  0.50000000  0.18750000  0.56250000  1
  Sc  Sc1191  1  0.50000000  0.43750000  0.81250000  1
  Sc  Sc1192  1  0.50000000  0.68750000  0.06250000  1
  Sc  Sc1193  1  0.50000000  0.93750000  0.56250000  1
  Sc  Sc1194  1  0.75000000  0.43750000  0.81250000  1
  Sc  Sc1195  1  0.75000000  0.93750000  0.06250000  1
  Sc  Sc1196  1  0.00000000  0.06250000  0.93750000  1
  Sc  Sc1197  1  0.00000000  0.31250000  0.68750000  1
  Sc  Sc1198  1  0.00000000  0.56250000  0.68750000  1
  Sc  Sc1199  1  0.00000000  0.81250000  0.18750000  1
  Sc  Sc1200  1  0.00000000  0.81250000  0.43750000  1
  Sc  Sc1201  1  0.25000000  0.06250000  0.43750000  1
  Sc  Sc1202  1  0.25000000  0.31250000  0.43750000  1
  Sc  Sc1203  1  0.25000000  0.31250000  0.68750000  1
  Sc  Sc1204  1  0.25000000  0.31250000  0.93750000  1
  Sc  Sc1205  1  0.25000000  0.56250000  0.68750000  1
  Sc  Sc1206  1  0.50000000  0.06250000  0.18750000  1
  Sc  Sc1207  1  0.50000000  0.06250000  0.93750000  1
  Sc  Sc1208  1  0.50000000  0.31250000  0.43750000  1
  Sc  Sc1209  1  0.50000000  0.56250000  0.43750000  1
  Sc  Sc1210  1  0.50000000  0.81250000  0.43750000  1
  Sc  Sc1211  1  0.75000000  0.31250000  0.68750000  1
  Sc  Sc1212  1  0.75000000  0.56250000  0.43750000  1
  Sc  Sc1213  1  0.12500000  0.18750000  0.43750000  1
  Sc  Sc1214  1  0.12500000  0.18750000  0.93750000  1
  Sc  Sc1215  1  0.12500000  0.43750000  0.18750000  1
  Sc  Sc1216  1  0.12500000  0.68750000  0.93750000  1
  Sc  Sc1217  1  0.12500000  0.93750000  0.68750000  1
  Sc  Sc1218  1  0.37500000  0.18750000  0.43750000  1
  Sc  Sc1219  1  0.37500000  0.18750000  0.68750000  1
  Sc  Sc1220  1  0.37500000  0.68750000  0.93750000  1
  Sc  Sc1221  1  0.37500000  0.93750000  0.43750000  1
  Sc  Sc1222  1  0.37500000  0.93750000  0.68750000  1
  Sc  Sc1223  1  0.37500000  0.93750000  0.93750000  1
  Sc  Sc1224  1  0.62500000  0.18750000  0.43750000  1
  Sc  Sc1225  1  0.62500000  0.43750000  0.93750000  1
  Sc  Sc1226  1  0.62500000  0.68750000  0.18750000  1
  Sc  Sc1227  1  0.62500000  0.68750000  0.43750000  1
  Sc  Sc1228  1  0.62500000  0.68750000  0.93750000  1
  Sc  Sc1229  1  0.62500000  0.93750000  0.68750000  1
  Sc  Sc1230  1  0.62500000  0.93750000  0.93750000  1
  Sc  Sc1231  1  0.87500000  0.18750000  0.18750000  1
  Sc  Sc1232  1  0.87500000  0.18750000  0.43750000  1
  Sc  Sc1233  1  0.87500000  0.18750000  0.93750000  1
  Sc  Sc1234  1  0.87500000  0.68750000  0.43750000  1
  Sc  Sc1235  1  0.87500000  0.68750000  0.93750000  1
  Sc  Sc1236  1  0.87500000  0.93750000  0.68750000  1
  Sc  Sc1237  1  0.06250000  0.12500000  0.06250000  1
  Sc  Sc1238  1  0.06250000  0.37500000  0.06250000  1
  Sc  Sc1239  1  0.06250000  0.37500000  0.31250000  1
  Sc  Sc1240  1  0.06250000  0.37500000  0.56250000  1
  Sc  Sc1241  1  0.06250000  0.62500000  0.56250000  1
  Sc  Sc1242  1  0.06250000  0.87500000  0.31250000  1
  Sc  Sc1243  1  0.06250000  0.87500000  0.81250000  1
  Sc  Sc1244  1  0.31250000  0.12500000  0.31250000  1
  Sc  Sc1245  1  0.31250000  0.12500000  0.56250000  1
  Sc  Sc1246  1  0.31250000  0.37500000  0.31250000  1
  Sc  Sc1247  1  0.31250000  0.37500000  0.56250000  1
  Sc  Sc1248  1  0.31250000  0.37500000  0.81250000  1
  Sc  Sc1249  1  0.31250000  0.62500000  0.81250000  1
  Sc  Sc1250  1  0.31250000  0.87500000  0.56250000  1
  Sc  Sc1251  1  0.31250000  0.87500000  0.81250000  1
  Sc  Sc1252  1  0.56250000  0.12500000  0.06250000  1
  Sc  Sc1253  1  0.56250000  0.12500000  0.31250000  1
  Sc  Sc1254  1  0.56250000  0.12500000  0.56250000  1
  Sc  Sc1255  1  0.56250000  0.12500000  0.81250000  1
  Sc  Sc1256  1  0.56250000  0.37500000  0.06250000  1
  Sc  Sc1257  1  0.56250000  0.37500000  0.56250000  1
  Sc  Sc1258  1  0.56250000  0.62500000  0.06250000  1
  Sc  Sc1259  1  0.56250000  0.62500000  0.31250000  1
  Sc  Sc1260  1  0.56250000  0.62500000  0.56250000  1
  Sc  Sc1261  1  0.56250000  0.62500000  0.81250000  1
  Sc  Sc1262  1  0.56250000  0.87500000  0.81250000  1
  Sc  Sc1263  1  0.81250000  0.12500000  0.31250000  1
  Sc  Sc1264  1  0.81250000  0.37500000  0.06250000  1
  Sc  Sc1265  1  0.81250000  0.37500000  0.31250000  1
  Sc  Sc1266  1  0.81250000  0.62500000  0.06250000  1
  Sc  Sc1267  1  0.81250000  0.62500000  0.31250000  1
  Sc  Sc1268  1  0.81250000  0.62500000  0.56250000  1
  Sc  Sc1269  1  0.81250000  0.62500000  0.81250000  1
  Sc  Sc1270  1  0.18750000  0.25000000  0.06250000  1
  Sc  Sc1271  1  0.18750000  0.75000000  0.06250000  1
  Sc  Sc1272  1  0.18750000  0.75000000  0.81250000  1
  Sc  Sc1273  1  0.43750000  0.00000000  0.31250000  1
  Sc  Sc1274  1  0.43750000  0.00000000  0.56250000  1
  Sc  Sc1275  1  0.43750000  0.25000000  0.56250000  1
  Sc  Sc1276  1  0.43750000  0.50000000  0.06250000  1
  Sc  Sc1277  1  0.43750000  0.50000000  0.56250000  1
  Sc  Sc1278  1  0.43750000  0.75000000  0.06250000  1
  Sc  Sc1279  1  0.68750000  0.00000000  0.06250000  1
  Sc  Sc1280  1  0.68750000  0.00000000  0.81250000  1
  Sc  Sc1281  1  0.68750000  0.50000000  0.56250000  1
  Sc  Sc1282  1  0.68750000  0.50000000  0.81250000  1
  Sc  Sc1283  1  0.68750000  0.75000000  0.06250000  1
  Sc  Sc1284  1  0.68750000  0.75000000  0.31250000  1
  Sc  Sc1285  1  0.93750000  0.00000000  0.06250000  1
  Sc  Sc1286  1  0.93750000  0.00000000  0.31250000  1
  Sc  Sc1287  1  0.93750000  0.25000000  0.06250000  1
  Sc  Sc1288  1  0.93750000  0.25000000  0.31250000  1
  Sc  Sc1289  1  0.93750000  0.25000000  0.81250000  1
  Sc  Sc1290  1  0.93750000  0.50000000  0.31250000  1
  Sc  Sc1291  1  0.93750000  0.75000000  0.56250000  1
  Sc  Sc1292  1  0.18750000  0.12500000  0.18750000  1
  Sc  Sc1293  1  0.18750000  0.37500000  0.43750000  1
  Sc  Sc1294  1  0.18750000  0.37500000  0.68750000  1
  Sc  Sc1295  1  0.18750000  0.37500000  0.93750000  1
  Sc  Sc1296  1  0.18750000  0.62500000  0.18750000  1
  Sc  Sc1297  1  0.18750000  0.62500000  0.43750000  1
  Sc  Sc1298  1  0.18750000  0.62500000  0.93750000  1
  Sc  Sc1299  1  0.18750000  0.87500000  0.68750000  1
  Sc  Sc1300  1  0.43750000  0.37500000  0.93750000  1
  Sc  Sc1301  1  0.43750000  0.62500000  0.43750000  1
  Sc  Sc1302  1  0.43750000  0.62500000  0.93750000  1
  Sc  Sc1303  1  0.68750000  0.12500000  0.18750000  1
  Sc  Sc1304  1  0.68750000  0.12500000  0.43750000  1
  Sc  Sc1305  1  0.68750000  0.37500000  0.93750000  1
  Sc  Sc1306  1  0.68750000  0.62500000  0.43750000  1
  Sc  Sc1307  1  0.68750000  0.62500000  0.93750000  1
  Sc  Sc1308  1  0.93750000  0.37500000  0.18750000  1
  Sc  Sc1309  1  0.93750000  0.62500000  0.43750000  1
  Sc  Sc1310  1  0.93750000  0.62500000  0.93750000  1
  Sc  Sc1311  1  0.93750000  0.87500000  0.18750000  1
  Sc  Sc1312  1  0.93750000  0.87500000  0.43750000  1
  Sc  Sc1313  1  0.06250000  0.00000000  0.68750000  1
  Sc  Sc1314  1  0.06250000  0.00000000  0.93750000  1
  Sc  Sc1315  1  0.31250000  0.00000000  0.18750000  1
  Sc  Sc1316  1  0.31250000  0.00000000  0.43750000  1
  Sc  Sc1317  1  0.31250000  0.00000000  0.68750000  1
  Sc  Sc1318  1  0.31250000  0.00000000  0.93750000  1
  Sc  Sc1319  1  0.31250000  0.25000000  0.68750000  1
  Sc  Sc1320  1  0.31250000  0.50000000  0.18750000  1
  Sc  Sc1321  1  0.31250000  0.50000000  0.43750000  1
  Sc  Sc1322  1  0.31250000  0.75000000  0.18750000  1
  Sc  Sc1323  1  0.31250000  0.75000000  0.43750000  1
  Sc  Sc1324  1  0.31250000  0.75000000  0.68750000  1
  Sc  Sc1325  1  0.31250000  0.75000000  0.93750000  1
  Sc  Sc1326  1  0.56250000  0.00000000  0.43750000  1
  Sc  Sc1327  1  0.56250000  0.25000000  0.68750000  1
  Sc  Sc1328  1  0.56250000  0.50000000  0.93750000  1
  Sc  Sc1329  1  0.81250000  0.25000000  0.18750000  1
  Sc  Sc1330  1  0.81250000  0.50000000  0.18750000  1
  Sc  Sc1331  1  0.81250000  0.50000000  0.68750000  1
  Sc  Sc1332  1  0.81250000  0.50000000  0.93750000  1
  Sc  Sc1333  1  0.81250000  0.75000000  0.43750000  1
  Sc  Sc1334  1  0.06250000  0.06250000  0.12500000  1
  Sc  Sc1335  1  0.06250000  0.06250000  0.87500000  1
  Sc  Sc1336  1  0.06250000  0.31250000  0.37500000  1
  Sc  Sc1337  1  0.06250000  0.31250000  0.62500000  1
  Sc  Sc1338  1  0.06250000  0.81250000  0.62500000  1
  Sc  Sc1339  1  0.31250000  0.06250000  0.12500000  1
  Sc  Sc1340  1  0.31250000  0.06250000  0.87500000  1
  Sc  Sc1341  1  0.31250000  0.31250000  0.12500000  1
  Sc  Sc1342  1  0.31250000  0.56250000  0.37500000  1
  Sc  Sc1343  1  0.31250000  0.81250000  0.12500000  1
  Sc  Sc1344  1  0.56250000  0.31250000  0.12500000  1
  Sc  Sc1345  1  0.56250000  0.56250000  0.12500000  1
  Sc  Sc1346  1  0.56250000  0.56250000  0.87500000  1
  Sc  Sc1347  1  0.56250000  0.81250000  0.87500000  1
  Sc  Sc1348  1  0.81250000  0.06250000  0.12500000  1
  Sc  Sc1349  1  0.81250000  0.31250000  0.37500000  1
  Sc  Sc1350  1  0.18750000  0.18750000  0.87500000  1
  Sc  Sc1351  1  0.18750000  0.43750000  0.12500000  1
  Sc  Sc1352  1  0.18750000  0.43750000  0.62500000  1
  Sc  Sc1353  1  0.18750000  0.43750000  0.87500000  1
  Sc  Sc1354  1  0.18750000  0.68750000  0.37500000  1
  Sc  Sc1355  1  0.43750000  0.43750000  0.62500000  1
  Sc  Sc1356  1  0.43750000  0.68750000  0.37500000  1
  Sc  Sc1357  1  0.43750000  0.93750000  0.37500000  1
  Sc  Sc1358  1  0.43750000  0.93750000  0.87500000  1
  Sc  Sc1359  1  0.68750000  0.18750000  0.37500000  1
  Sc  Sc1360  1  0.68750000  0.43750000  0.12500000  1
  Sc  Sc1361  1  0.68750000  0.43750000  0.87500000  1
  Sc  Sc1362  1  0.68750000  0.68750000  0.62500000  1
  Sc  Sc1363  1  0.68750000  0.93750000  0.12500000  1
  Sc  Sc1364  1  0.68750000  0.93750000  0.87500000  1
  Sc  Sc1365  1  0.93750000  0.18750000  0.37500000  1
  Sc  Sc1366  1  0.93750000  0.93750000  0.62500000  1
  Sc  Sc1367  1  0.18750000  0.06250000  0.00000000  1
  Sc  Sc1368  1  0.18750000  0.31250000  0.00000000  1
  Sc  Sc1369  1  0.18750000  0.31250000  0.50000000  1
  Sc  Sc1370  1  0.18750000  0.56250000  0.00000000  1
  Sc  Sc1371  1  0.18750000  0.81250000  1.00000000  1
  Sc  Sc1372  1  0.18750000  0.81250000  0.75000000  1
  Sc  Sc1373  1  0.43750000  0.06250000  0.25000000  1
  Sc  Sc1374  1  0.43750000  0.31250000  0.50000000  1
  Sc  Sc1375  1  0.43750000  0.56250000  0.50000000  1
  Sc  Sc1376  1  0.43750000  0.81250000  0.25000000  1
  Sc  Sc1377  1  0.68750000  0.06250000  0.50000000  1
  Sc  Sc1378  1  0.68750000  0.31250000  0.25000000  1
  Sc  Sc1379  1  0.68750000  0.31250000  0.75000000  1
  Sc  Sc1380  1  0.68750000  0.56250000  0.00000000  1
  Sc  Sc1381  1  0.68750000  0.56250000  0.75000000  1
  Sc  Sc1382  1  0.93750000  0.06250000  0.50000000  1
  Sc  Sc1383  1  0.93750000  0.06250000  0.75000000  1
  Sc  Sc1384  1  0.06250000  0.18750000  0.25000000  1
  Sc  Sc1385  1  0.06250000  0.18750000  0.75000000  1
  Sc  Sc1386  1  0.06250000  0.43750000  0.00000000  1
  Sc  Sc1387  1  0.06250000  0.43750000  0.50000000  1
  Sc  Sc1388  1  0.06250000  0.93750000  0.00000000  1
  Sc  Sc1389  1  0.06250000  0.93750000  0.25000000  1
  Sc  Sc1390  1  0.06250000  0.93750000  0.50000000  1
  Sc  Sc1391  1  0.31250000  0.18750000  0.00000000  1
  Sc  Sc1392  1  0.31250000  0.43750000  0.00000000  1
  Sc  Sc1393  1  0.31250000  0.43750000  0.50000000  1
  Sc  Sc1394  1  0.31250000  0.68750000  0.75000000  1
  Sc  Sc1395  1  0.31250000  0.93750000  0.00000000  1
  Sc  Sc1396  1  0.31250000  0.93750000  0.50000000  1
  Sc  Sc1397  1  0.56250000  0.18750000  0.00000000  1
  Sc  Sc1398  1  0.56250000  0.18750000  0.25000000  1
  Sc  Sc1399  1  0.56250000  0.18750000  0.50000000  1
  Sc  Sc1400  1  0.56250000  0.18750000  0.75000000  1
  Sc  Sc1401  1  0.56250000  0.43750000  0.00000000  1
  Sc  Sc1402  1  0.56250000  0.68750000  0.75000000  1
  Sc  Sc1403  1  0.56250000  0.93750000  0.00000000  1
  Sc  Sc1404  1  0.56250000  0.93750000  0.75000000  1
  Sc  Sc1405  1  0.81250000  0.18750000  0.75000000  1
  Sc  Sc1406  1  0.81250000  0.43750000  0.00000000  1
  Sc  Sc1407  1  0.81250000  0.93750000  0.00000000  1
  Cl  Cl1408  1  0.18750000  0.18750000  0.18750000  1
  Cl  Cl1409  1  0.18750000  0.18750000  0.43750000  1
  Cl  Cl1410  1  0.18750000  0.18750000  0.68750000  1
  Cl  Cl1411  1  0.18750000  0.18750000  0.93750000  1
  Cl  Cl1412  1  0.18750000  0.43750000  0.18750000  1
  Cl  Cl1413  1  0.18750000  0.43750000  0.43750000  1
  Cl  Cl1414  1  0.18750000  0.43750000  0.68750000  1
  Cl  Cl1415  1  0.18750000  0.43750000  0.93750000  1
  Cl  Cl1416  1  0.18750000  0.68750000  0.18750000  1
  Cl  Cl1417  1  0.18750000  0.68750000  0.43750000  1
  Cl  Cl1418  1  0.18750000  0.68750000  0.68750000  1
  Cl  Cl1419  1  0.18750000  0.68750000  0.93750000  1
  Cl  Cl1420  1  0.18750000  0.93750000  0.18750000  1
  Cl  Cl1421  1  0.18750000  0.93750000  0.43750000  1
  Cl  Cl1422  1  0.18750000  0.93750000  0.68750000  1
  Cl  Cl1423  1  0.18750000  0.93750000  0.93750000  1
  Cl  Cl1424  1  0.43750000  0.18750000  0.18750000  1
  Cl  Cl1425  1  0.43750000  0.18750000  0.43750000  1
  Cl  Cl1426  1  0.43750000  0.18750000  0.68750000  1
  Cl  Cl1427  1  0.43750000  0.18750000  0.93750000  1
  Cl  Cl1428  1  0.43750000  0.43750000  0.18750000  1
  Cl  Cl1429  1  0.43750000  0.43750000  0.43750000  1
  Cl  Cl1430  1  0.43750000  0.43750000  0.68750000  1
  Cl  Cl1431  1  0.43750000  0.43750000  0.93750000  1
  Cl  Cl1432  1  0.43750000  0.68750000  0.18750000  1
  Cl  Cl1433  1  0.43750000  0.68750000  0.43750000  1
  Cl  Cl1434  1  0.43750000  0.68750000  0.68750000  1
  Cl  Cl1435  1  0.43750000  0.68750000  0.93750000  1
  Cl  Cl1436  1  0.43750000  0.93750000  0.18750000  1
  Cl  Cl1437  1  0.43750000  0.93750000  0.43750000  1
  Cl  Cl1438  1  0.43750000  0.93750000  0.68750000  1
  Cl  Cl1439  1  0.43750000  0.93750000  0.93750000  1
  Cl  Cl1440  1  0.68750000  0.18750000  0.18750000  1
  Cl  Cl1441  1  0.68750000  0.18750000  0.43750000  1
  Cl  Cl1442  1  0.68750000  0.18750000  0.68750000  1
  Cl  Cl1443  1  0.68750000  0.18750000  0.93750000  1
  Cl  Cl1444  1  0.68750000  0.43750000  0.18750000  1
  Cl  Cl1445  1  0.68750000  0.43750000  0.43750000  1
  Cl  Cl1446  1  0.68750000  0.43750000  0.68750000  1
  Cl  Cl1447  1  0.68750000  0.43750000  0.93750000  1
  Cl  Cl1448  1  0.68750000  0.68750000  0.18750000  1
  Cl  Cl1449  1  0.68750000  0.68750000  0.43750000  1
  Cl  Cl1450  1  0.68750000  0.68750000  0.68750000  1
  Cl  Cl1451  1  0.68750000  0.68750000  0.93750000  1
  Cl  Cl1452  1  0.68750000  0.93750000  0.18750000  1
  Cl  Cl1453  1  0.68750000  0.93750000  0.43750000  1
  Cl  Cl1454  1  0.68750000  0.93750000  0.68750000  1
  Cl  Cl1455  1  0.68750000  0.93750000  0.93750000  1
  Cl  Cl1456  1  0.93750000  0.18750000  0.18750000  1
  Cl  Cl1457  1  0.93750000  0.18750000  0.43750000  1
  Cl  Cl1458  1  0.93750000  0.18750000  0.68750000  1
  Cl  Cl1459  1  0.93750000  0.18750000  0.93750000  1
  Cl  Cl1460  1  0.93750000  0.43750000  0.18750000  1
  Cl  Cl1461  1  0.93750000  0.43750000  0.43750000  1
  Cl  Cl1462  1  0.93750000  0.43750000  0.68750000  1
  Cl  Cl1463  1  0.93750000  0.43750000  0.93750000  1
  Cl  Cl1464  1  0.93750000  0.68750000  0.18750000  1
  Cl  Cl1465  1  0.93750000  0.68750000  0.43750000  1
  Cl  Cl1466  1  0.93750000  0.68750000  0.68750000  1
  Cl  Cl1467  1  0.93750000  0.68750000  0.93750000  1
  Cl  Cl1468  1  0.93750000  0.93750000  0.18750000  1
  Cl  Cl1469  1  0.93750000  0.93750000  0.43750000  1
  Cl  Cl1470  1  0.93750000  0.93750000  0.68750000  1
  Cl  Cl1471  1  0.93750000  0.93750000  0.93750000  1
  Cl  Cl1472  1  0.06250000  0.06250000  0.18750000  1
  Cl  Cl1473  1  0.06250000  0.06250000  0.43750000  1
  Cl  Cl1474  1  0.06250000  0.06250000  0.68750000  1
  Cl  Cl1475  1  0.06250000  0.06250000  0.93750000  1
  Cl  Cl1476  1  0.06250000  0.31250000  0.18750000  1
  Cl  Cl1477  1  0.06250000  0.31250000  0.43750000  1
  Cl  Cl1478  1  0.06250000  0.31250000  0.68750000  1
  Cl  Cl1479  1  0.06250000  0.31250000  0.93750000  1
  Cl  Cl1480  1  0.06250000  0.56250000  0.18750000  1
  Cl  Cl1481  1  0.06250000  0.56250000  0.43750000  1
  Cl  Cl1482  1  0.06250000  0.56250000  0.68750000  1
  Cl  Cl1483  1  0.06250000  0.56250000  0.93750000  1
  Cl  Cl1484  1  0.06250000  0.81250000  0.18750000  1
  Cl  Cl1485  1  0.06250000  0.81250000  0.43750000  1
  Cl  Cl1486  1  0.06250000  0.81250000  0.68750000  1
  Cl  Cl1487  1  0.06250000  0.81250000  0.93750000  1
  Cl  Cl1488  1  0.31250000  0.06250000  0.18750000  1
  Cl  Cl1489  1  0.31250000  0.06250000  0.43750000  1
  Cl  Cl1490  1  0.31250000  0.06250000  0.68750000  1
  Cl  Cl1491  1  0.31250000  0.06250000  0.93750000  1
  Cl  Cl1492  1  0.31250000  0.31250000  0.18750000  1
  Cl  Cl1493  1  0.31250000  0.31250000  0.43750000  1
  Cl  Cl1494  1  0.31250000  0.31250000  0.68750000  1
  Cl  Cl1495  1  0.31250000  0.31250000  0.93750000  1
  Cl  Cl1496  1  0.31250000  0.56250000  0.18750000  1
  Cl  Cl1497  1  0.31250000  0.56250000  0.43750000  1
  Cl  Cl1498  1  0.31250000  0.56250000  0.68750000  1
  Cl  Cl1499  1  0.31250000  0.56250000  0.93750000  1
  Cl  Cl1500  1  0.31250000  0.81250000  0.18750000  1
  Cl  Cl1501  1  0.31250000  0.81250000  0.43750000  1
  Cl  Cl1502  1  0.31250000  0.81250000  0.68750000  1
  Cl  Cl1503  1  0.31250000  0.81250000  0.93750000  1
  Cl  Cl1504  1  0.56250000  0.06250000  0.18750000  1
  Cl  Cl1505  1  0.56250000  0.06250000  0.43750000  1
  Cl  Cl1506  1  0.56250000  0.06250000  0.68750000  1
  Cl  Cl1507  1  0.56250000  0.06250000  0.93750000  1
  Cl  Cl1508  1  0.56250000  0.31250000  0.18750000  1
  Cl  Cl1509  1  0.56250000  0.31250000  0.43750000  1
  Cl  Cl1510  1  0.56250000  0.31250000  0.68750000  1
  Cl  Cl1511  1  0.56250000  0.31250000  0.93750000  1
  Cl  Cl1512  1  0.56250000  0.56250000  0.18750000  1
  Cl  Cl1513  1  0.56250000  0.56250000  0.43750000  1
  Cl  Cl1514  1  0.56250000  0.56250000  0.68750000  1
  Cl  Cl1515  1  0.56250000  0.56250000  0.93750000  1
  Cl  Cl1516  1  0.56250000  0.81250000  0.18750000  1
  Cl  Cl1517  1  0.56250000  0.81250000  0.43750000  1
  Cl  Cl1518  1  0.56250000  0.81250000  0.68750000  1
  Cl  Cl1519  1  0.56250000  0.81250000  0.93750000  1
  Cl  Cl1520  1  0.81250000  0.06250000  0.18750000  1
  Cl  Cl1521  1  0.81250000  0.06250000  0.43750000  1
  Cl  Cl1522  1  0.81250000  0.06250000  0.68750000  1
  Cl  Cl1523  1  0.81250000  0.06250000  0.93750000  1
  Cl  Cl1524  1  0.81250000  0.31250000  0.18750000  1
  Cl  Cl1525  1  0.81250000  0.31250000  0.43750000  1
  Cl  Cl1526  1  0.81250000  0.31250000  0.68750000  1
  Cl  Cl1527  1  0.81250000  0.31250000  0.93750000  1
  Cl  Cl1528  1  0.81250000  0.56250000  0.18750000  1
  Cl  Cl1529  1  0.81250000  0.56250000  0.43750000  1
  Cl  Cl1530  1  0.81250000  0.56250000  0.68750000  1
  Cl  Cl1531  1  0.81250000  0.56250000  0.93750000  1
  Cl  Cl1532  1  0.81250000  0.81250000  0.18750000  1
  Cl  Cl1533  1  0.81250000  0.81250000  0.43750000  1
  Cl  Cl1534  1  0.81250000  0.81250000  0.68750000  1
  Cl  Cl1535  1  0.81250000  0.81250000  0.93750000  1
  Cl  Cl1536  1  0.06250000  0.18750000  0.06250000  1
  Cl  Cl1537  1  0.06250000  0.18750000  0.31250000  1
  Cl  Cl1538  1  0.06250000  0.18750000  0.56250000  1
  Cl  Cl1539  1  0.06250000  0.18750000  0.81250000  1
  Cl  Cl1540  1  0.06250000  0.43750000  0.06250000  1
  Cl  Cl1541  1  0.06250000  0.43750000  0.31250000  1
  Cl  Cl1542  1  0.06250000  0.43750000  0.56250000  1
  Cl  Cl1543  1  0.06250000  0.43750000  0.81250000  1
  Cl  Cl1544  1  0.06250000  0.68750000  0.06250000  1
  Cl  Cl1545  1  0.06250000  0.68750000  0.31250000  1
  Cl  Cl1546  1  0.06250000  0.68750000  0.56250000  1
  Cl  Cl1547  1  0.06250000  0.68750000  0.81250000  1
  Cl  Cl1548  1  0.06250000  0.93750000  0.06250000  1
  Cl  Cl1549  1  0.06250000  0.93750000  0.31250000  1
  Cl  Cl1550  1  0.06250000  0.93750000  0.56250000  1
  Cl  Cl1551  1  0.06250000  0.93750000  0.81250000  1
  Cl  Cl1552  1  0.31250000  0.18750000  0.06250000  1
  Cl  Cl1553  1  0.31250000  0.18750000  0.31250000  1
  Cl  Cl1554  1  0.31250000  0.18750000  0.56250000  1
  Cl  Cl1555  1  0.31250000  0.18750000  0.81250000  1
  Cl  Cl1556  1  0.31250000  0.43750000  0.06250000  1
  Cl  Cl1557  1  0.31250000  0.43750000  0.31250000  1
  Cl  Cl1558  1  0.31250000  0.43750000  0.56250000  1
  Cl  Cl1559  1  0.31250000  0.43750000  0.81250000  1
  Cl  Cl1560  1  0.31250000  0.68750000  0.06250000  1
  Cl  Cl1561  1  0.31250000  0.68750000  0.31250000  1
  Cl  Cl1562  1  0.31250000  0.68750000  0.56250000  1
  Cl  Cl1563  1  0.31250000  0.68750000  0.81250000  1
  Cl  Cl1564  1  0.31250000  0.93750000  0.06250000  1
  Cl  Cl1565  1  0.31250000  0.93750000  0.31250000  1
  Cl  Cl1566  1  0.31250000  0.93750000  0.56250000  1
  Cl  Cl1567  1  0.31250000  0.93750000  0.81250000  1
  Cl  Cl1568  1  0.56250000  0.18750000  0.06250000  1
  Cl  Cl1569  1  0.56250000  0.18750000  0.31250000  1
  Cl  Cl1570  1  0.56250000  0.18750000  0.56250000  1
  Cl  Cl1571  1  0.56250000  0.18750000  0.81250000  1
  Cl  Cl1572  1  0.56250000  0.43750000  0.06250000  1
  Cl  Cl1573  1  0.56250000  0.43750000  0.31250000  1
  Cl  Cl1574  1  0.56250000  0.43750000  0.56250000  1
  Cl  Cl1575  1  0.56250000  0.43750000  0.81250000  1
  Cl  Cl1576  1  0.56250000  0.68750000  0.06250000  1
  Cl  Cl1577  1  0.56250000  0.68750000  0.31250000  1
  Cl  Cl1578  1  0.56250000  0.68750000  0.56250000  1
  Cl  Cl1579  1  0.56250000  0.68750000  0.81250000  1
  Cl  Cl1580  1  0.56250000  0.93750000  0.06250000  1
  Cl  Cl1581  1  0.56250000  0.93750000  0.31250000  1
  Cl  Cl1582  1  0.56250000  0.93750000  0.56250000  1
  Cl  Cl1583  1  0.56250000  0.93750000  0.81250000  1
  Cl  Cl1584  1  0.81250000  0.18750000  0.06250000  1
  Cl  Cl1585  1  0.81250000  0.18750000  0.31250000  1
  Cl  Cl1586  1  0.81250000  0.18750000  0.56250000  1
  Cl  Cl1587  1  0.81250000  0.18750000  0.81250000  1
  Cl  Cl1588  1  0.81250000  0.43750000  0.06250000  1
  Cl  Cl1589  1  0.81250000  0.43750000  0.31250000  1
  Cl  Cl1590  1  0.81250000  0.43750000  0.56250000  1
  Cl  Cl1591  1  0.81250000  0.43750000  0.81250000  1
  Cl  Cl1592  1  0.81250000  0.68750000  0.06250000  1
  Cl  Cl1593  1  0.81250000  0.68750000  0.31250000  1
  Cl  Cl1594  1  0.81250000  0.68750000  0.56250000  1
  Cl  Cl1595  1  0.81250000  0.68750000  0.81250000  1
  Cl  Cl1596  1  0.81250000  0.93750000  0.06250000  1
  Cl  Cl1597  1  0.81250000  0.93750000  0.31250000  1
  Cl  Cl1598  1  0.81250000  0.93750000  0.56250000  1
  Cl  Cl1599  1  0.81250000  0.93750000  0.81250000  1
  Cl  Cl1600  1  0.18750000  0.06250000  0.06250000  1
  Cl  Cl1601  1  0.18750000  0.06250000  0.31250000  1
  Cl  Cl1602  1  0.18750000  0.06250000  0.56250000  1
  Cl  Cl1603  1  0.18750000  0.06250000  0.81250000  1
  Cl  Cl1604  1  0.18750000  0.31250000  0.06250000  1
  Cl  Cl1605  1  0.18750000  0.31250000  0.31250000  1
  Cl  Cl1606  1  0.18750000  0.31250000  0.56250000  1
  Cl  Cl1607  1  0.18750000  0.31250000  0.81250000  1
  Cl  Cl1608  1  0.18750000  0.56250000  0.06250000  1
  Cl  Cl1609  1  0.18750000  0.56250000  0.31250000  1
  Cl  Cl1610  1  0.18750000  0.56250000  0.56250000  1
  Cl  Cl1611  1  0.18750000  0.56250000  0.81250000  1
  Cl  Cl1612  1  0.18750000  0.81250000  0.06250000  1
  Cl  Cl1613  1  0.18750000  0.81250000  0.31250000  1
  Cl  Cl1614  1  0.18750000  0.81250000  0.56250000  1
  Cl  Cl1615  1  0.18750000  0.81250000  0.81250000  1
  Cl  Cl1616  1  0.43750000  0.06250000  0.06250000  1
  Cl  Cl1617  1  0.43750000  0.06250000  0.31250000  1
  Cl  Cl1618  1  0.43750000  0.06250000  0.56250000  1
  Cl  Cl1619  1  0.43750000  0.06250000  0.81250000  1
  Cl  Cl1620  1  0.43750000  0.31250000  0.06250000  1
  Cl  Cl1621  1  0.43750000  0.31250000  0.31250000  1
  Cl  Cl1622  1  0.43750000  0.31250000  0.56250000  1
  Cl  Cl1623  1  0.43750000  0.31250000  0.81250000  1
  Cl  Cl1624  1  0.43750000  0.56250000  0.06250000  1
  Cl  Cl1625  1  0.43750000  0.56250000  0.31250000  1
  Cl  Cl1626  1  0.43750000  0.56250000  0.56250000  1
  Cl  Cl1627  1  0.43750000  0.56250000  0.81250000  1
  Cl  Cl1628  1  0.43750000  0.81250000  0.06250000  1
  Cl  Cl1629  1  0.43750000  0.81250000  0.31250000  1
  Cl  Cl1630  1  0.43750000  0.81250000  0.56250000  1
  Cl  Cl1631  1  0.43750000  0.81250000  0.81250000  1
  Cl  Cl1632  1  0.68750000  0.06250000  0.06250000  1
  Cl  Cl1633  1  0.68750000  0.06250000  0.31250000  1
  Cl  Cl1634  1  0.68750000  0.06250000  0.56250000  1
  Cl  Cl1635  1  0.68750000  0.06250000  0.81250000  1
  Cl  Cl1636  1  0.68750000  0.31250000  0.06250000  1
  Cl  Cl1637  1  0.68750000  0.31250000  0.31250000  1
  Cl  Cl1638  1  0.68750000  0.31250000  0.56250000  1
  Cl  Cl1639  1  0.68750000  0.31250000  0.81250000  1
  Cl  Cl1640  1  0.68750000  0.56250000  0.06250000  1
  Cl  Cl1641  1  0.68750000  0.56250000  0.31250000  1
  Cl  Cl1642  1  0.68750000  0.56250000  0.56250000  1
  Cl  Cl1643  1  0.68750000  0.56250000  0.81250000  1
  Cl  Cl1644  1  0.68750000  0.81250000  0.06250000  1
  Cl  Cl1645  1  0.68750000  0.81250000  0.31250000  1
  Cl  Cl1646  1  0.68750000  0.81250000  0.56250000  1
  Cl  Cl1647  1  0.68750000  0.81250000  0.81250000  1
  Cl  Cl1648  1  0.93750000  0.06250000  0.06250000  1
  Cl  Cl1649  1  0.93750000  0.06250000  0.31250000  1
  Cl  Cl1650  1  0.93750000  0.06250000  0.56250000  1
  Cl  Cl1651  1  0.93750000  0.06250000  0.81250000  1
  Cl  Cl1652  1  0.93750000  0.31250000  0.06250000  1
  Cl  Cl1653  1  0.93750000  0.31250000  0.31250000  1
  Cl  Cl1654  1  0.93750000  0.31250000  0.56250000  1
  Cl  Cl1655  1  0.93750000  0.31250000  0.81250000  1
  Cl  Cl1656  1  0.93750000  0.56250000  0.06250000  1
  Cl  Cl1657  1  0.93750000  0.56250000  0.31250000  1
  Cl  Cl1658  1  0.93750000  0.56250000  0.56250000  1
  Cl  Cl1659  1  0.93750000  0.56250000  0.81250000  1
  Cl  Cl1660  1  0.93750000  0.81250000  0.06250000  1
  Cl  Cl1661  1  0.93750000  0.81250000  0.31250000  1
  Cl  Cl1662  1  0.93750000  0.81250000  0.56250000  1
  Cl  Cl1663  1  0.93750000  0.81250000  0.81250000  1
  Cl  Cl1664  1  0.18750000  0.12500000  0.12500000  1
  Cl  Cl1665  1  0.18750000  0.12500000  0.37500000  1
  Cl  Cl1666  1  0.18750000  0.12500000  0.62500000  1
  Cl  Cl1667  1  0.18750000  0.12500000  0.87500000  1
  Cl  Cl1668  1  0.18750000  0.37500000  0.12500000  1
  Cl  Cl1669  1  0.18750000  0.37500000  0.37500000  1
  Cl  Cl1670  1  0.18750000  0.37500000  0.62500000  1
  Cl  Cl1671  1  0.18750000  0.37500000  0.87500000  1
  Cl  Cl1672  1  0.18750000  0.62500000  0.12500000  1
  Cl  Cl1673  1  0.18750000  0.62500000  0.37500000  1
  Cl  Cl1674  1  0.18750000  0.62500000  0.62500000  1
  Cl  Cl1675  1  0.18750000  0.62500000  0.87500000  1
  Cl  Cl1676  1  0.18750000  0.87500000  0.12500000  1
  Cl  Cl1677  1  0.18750000  0.87500000  0.37500000  1
  Cl  Cl1678  1  0.18750000  0.87500000  0.62500000  1
  Cl  Cl1679  1  0.18750000  0.87500000  0.87500000  1
  Cl  Cl1680  1  0.43750000  0.12500000  0.12500000  1
  Cl  Cl1681  1  0.43750000  0.12500000  0.37500000  1
  Cl  Cl1682  1  0.43750000  0.12500000  0.62500000  1
  Cl  Cl1683  1  0.43750000  0.12500000  0.87500000  1
  Cl  Cl1684  1  0.43750000  0.37500000  0.12500000  1
  Cl  Cl1685  1  0.43750000  0.37500000  0.37500000  1
  Cl  Cl1686  1  0.43750000  0.37500000  0.62500000  1
  Cl  Cl1687  1  0.43750000  0.37500000  0.87500000  1
  Cl  Cl1688  1  0.43750000  0.62500000  0.12500000  1
  Cl  Cl1689  1  0.43750000  0.62500000  0.37500000  1
  Cl  Cl1690  1  0.43750000  0.62500000  0.62500000  1
  Cl  Cl1691  1  0.43750000  0.62500000  0.87500000  1
  Cl  Cl1692  1  0.43750000  0.87500000  0.12500000  1
  Cl  Cl1693  1  0.43750000  0.87500000  0.37500000  1
  Cl  Cl1694  1  0.43750000  0.87500000  0.62500000  1
  Cl  Cl1695  1  0.43750000  0.87500000  0.87500000  1
  Cl  Cl1696  1  0.68750000  0.12500000  0.12500000  1
  Cl  Cl1697  1  0.68750000  0.12500000  0.37500000  1
  Cl  Cl1698  1  0.68750000  0.12500000  0.62500000  1
  Cl  Cl1699  1  0.68750000  0.12500000  0.87500000  1
  Cl  Cl1700  1  0.68750000  0.37500000  0.12500000  1
  Cl  Cl1701  1  0.68750000  0.37500000  0.37500000  1
  Cl  Cl1702  1  0.68750000  0.37500000  0.62500000  1
  Cl  Cl1703  1  0.68750000  0.37500000  0.87500000  1
  Cl  Cl1704  1  0.68750000  0.62500000  0.12500000  1
  Cl  Cl1705  1  0.68750000  0.62500000  0.37500000  1
  Cl  Cl1706  1  0.68750000  0.62500000  0.62500000  1
  Cl  Cl1707  1  0.68750000  0.62500000  0.87500000  1
  Cl  Cl1708  1  0.68750000  0.87500000  0.12500000  1
  Cl  Cl1709  1  0.68750000  0.87500000  0.37500000  1
  Cl  Cl1710  1  0.68750000  0.87500000  0.62500000  1
  Cl  Cl1711  1  0.68750000  0.87500000  0.87500000  1
  Cl  Cl1712  1  0.93750000  0.12500000  0.12500000  1
  Cl  Cl1713  1  0.93750000  0.12500000  0.37500000  1
  Cl  Cl1714  1  0.93750000  0.12500000  0.62500000  1
  Cl  Cl1715  1  0.93750000  0.12500000  0.87500000  1
  Cl  Cl1716  1  0.93750000  0.37500000  0.12500000  1
  Cl  Cl1717  1  0.93750000  0.37500000  0.37500000  1
  Cl  Cl1718  1  0.93750000  0.37500000  0.62500000  1
  Cl  Cl1719  1  0.93750000  0.37500000  0.87500000  1
  Cl  Cl1720  1  0.93750000  0.62500000  0.12500000  1
  Cl  Cl1721  1  0.93750000  0.62500000  0.37500000  1
  Cl  Cl1722  1  0.93750000  0.62500000  0.62500000  1
  Cl  Cl1723  1  0.93750000  0.62500000  0.87500000  1
  Cl  Cl1724  1  0.93750000  0.87500000  0.12500000  1
  Cl  Cl1725  1  0.93750000  0.87500000  0.37500000  1
  Cl  Cl1726  1  0.93750000  0.87500000  0.62500000  1
  Cl  Cl1727  1  0.93750000  0.87500000  0.87500000  1
  Cl  Cl1728  1  0.06250000  0.00000000  0.12500000  1
  Cl  Cl1729  1  0.06250000  0.00000000  0.37500000  1
  Cl  Cl1730  1  0.06250000  0.00000000  0.62500000  1
  Cl  Cl1731  1  0.06250000  0.00000000  0.87500000  1
  Cl  Cl1732  1  0.06250000  0.25000000  0.12500000  1
  Cl  Cl1733  1  0.06250000  0.25000000  0.37500000  1
  Cl  Cl1734  1  0.06250000  0.25000000  0.62500000  1
  Cl  Cl1735  1  0.06250000  0.25000000  0.87500000  1
  Cl  Cl1736  1  0.06250000  0.50000000  0.12500000  1
  Cl  Cl1737  1  0.06250000  0.50000000  0.37500000  1
  Cl  Cl1738  1  0.06250000  0.50000000  0.62500000  1
  Cl  Cl1739  1  0.06250000  0.50000000  0.87500000  1
  Cl  Cl1740  1  0.06250000  0.75000000  0.12500000  1
  Cl  Cl1741  1  0.06250000  0.75000000  0.37500000  1
  Cl  Cl1742  1  0.06250000  0.75000000  0.62500000  1
  Cl  Cl1743  1  0.06250000  0.75000000  0.87500000  1
  Cl  Cl1744  1  0.31250000  0.00000000  0.12500000  1
  Cl  Cl1745  1  0.31250000  0.00000000  0.37500000  1
  Cl  Cl1746  1  0.31250000  0.00000000  0.62500000  1
  Cl  Cl1747  1  0.31250000  0.00000000  0.87500000  1
  Cl  Cl1748  1  0.31250000  0.25000000  0.12500000  1
  Cl  Cl1749  1  0.31250000  0.25000000  0.37500000  1
  Cl  Cl1750  1  0.31250000  0.25000000  0.62500000  1
  Cl  Cl1751  1  0.31250000  0.25000000  0.87500000  1
  Cl  Cl1752  1  0.31250000  0.50000000  0.12500000  1
  Cl  Cl1753  1  0.31250000  0.50000000  0.37500000  1
  Cl  Cl1754  1  0.31250000  0.50000000  0.62500000  1
  Cl  Cl1755  1  0.31250000  0.50000000  0.87500000  1
  Cl  Cl1756  1  0.31250000  0.75000000  0.12500000  1
  Cl  Cl1757  1  0.31250000  0.75000000  0.37500000  1
  Cl  Cl1758  1  0.31250000  0.75000000  0.62500000  1
  Cl  Cl1759  1  0.31250000  0.75000000  0.87500000  1
  Cl  Cl1760  1  0.56250000  0.00000000  0.12500000  1
  Cl  Cl1761  1  0.56250000  0.00000000  0.37500000  1
  Cl  Cl1762  1  0.56250000  0.00000000  0.62500000  1
  Cl  Cl1763  1  0.56250000  0.00000000  0.87500000  1
  Cl  Cl1764  1  0.56250000  0.25000000  0.12500000  1
  Cl  Cl1765  1  0.56250000  0.25000000  0.37500000  1
  Cl  Cl1766  1  0.56250000  0.25000000  0.62500000  1
  Cl  Cl1767  1  0.56250000  0.25000000  0.87500000  1
  Cl  Cl1768  1  0.56250000  0.50000000  0.12500000  1
  Cl  Cl1769  1  0.56250000  0.50000000  0.37500000  1
  Cl  Cl1770  1  0.56250000  0.50000000  0.62500000  1
  Cl  Cl1771  1  0.56250000  0.50000000  0.87500000  1
  Cl  Cl1772  1  0.56250000  0.75000000  0.12500000  1
  Cl  Cl1773  1  0.56250000  0.75000000  0.37500000  1
  Cl  Cl1774  1  0.56250000  0.75000000  0.62500000  1
  Cl  Cl1775  1  0.56250000  0.75000000  0.87500000  1
  Cl  Cl1776  1  0.81250000  0.00000000  0.12500000  1
  Cl  Cl1777  1  0.81250000  0.00000000  0.37500000  1
  Cl  Cl1778  1  0.81250000  0.00000000  0.62500000  1
  Cl  Cl1779  1  0.81250000  0.00000000  0.87500000  1
  Cl  Cl1780  1  0.81250000  0.25000000  0.12500000  1
  Cl  Cl1781  1  0.81250000  0.25000000  0.37500000  1
  Cl  Cl1782  1  0.81250000  0.25000000  0.62500000  1
  Cl  Cl1783  1  0.81250000  0.25000000  0.87500000  1
  Cl  Cl1784  1  0.81250000  0.50000000  0.12500000  1
  Cl  Cl1785  1  0.81250000  0.50000000  0.37500000  1
  Cl  Cl1786  1  0.81250000  0.50000000  0.62500000  1
  Cl  Cl1787  1  0.81250000  0.50000000  0.87500000  1
  Cl  Cl1788  1  0.81250000  0.75000000  0.12500000  1
  Cl  Cl1789  1  0.81250000  0.75000000  0.37500000  1
  Cl  Cl1790  1  0.81250000  0.75000000  0.62500000  1
  Cl  Cl1791  1  0.81250000  0.75000000  0.87500000  1
  Cl  Cl1792  1  0.06250000  0.12500000  0.00000000  1
  Cl  Cl1793  1  0.06250000  0.12500000  0.25000000  1
  Cl  Cl1794  1  0.06250000  0.12500000  0.50000000  1
  Cl  Cl1795  1  0.06250000  0.12500000  0.75000000  1
  Cl  Cl1796  1  0.06250000  0.37500000  0.00000000  1
  Cl  Cl1797  1  0.06250000  0.37500000  0.25000000  1
  Cl  Cl1798  1  0.06250000  0.37500000  0.50000000  1
  Cl  Cl1799  1  0.06250000  0.37500000  0.75000000  1
  Cl  Cl1800  1  0.06250000  0.62500000  0.00000000  1
  Cl  Cl1801  1  0.06250000  0.62500000  0.25000000  1
  Cl  Cl1802  1  0.06250000  0.62500000  0.50000000  1
  Cl  Cl1803  1  0.06250000  0.62500000  0.75000000  1
  Cl  Cl1804  1  0.06250000  0.87500000  1.00000000  1
  Cl  Cl1805  1  0.06250000  0.87500000  0.25000000  1
  Cl  Cl1806  1  0.06250000  0.87500000  0.50000000  1
  Cl  Cl1807  1  0.06250000  0.87500000  0.75000000  1
  Cl  Cl1808  1  0.31250000  0.12500000  0.00000000  1
  Cl  Cl1809  1  0.31250000  0.12500000  0.25000000  1
  Cl  Cl1810  1  0.31250000  0.12500000  0.50000000  1
  Cl  Cl1811  1  0.31250000  0.12500000  0.75000000  1
  Cl  Cl1812  1  0.31250000  0.37500000  0.00000000  1
  Cl  Cl1813  1  0.31250000  0.37500000  0.25000000  1
  Cl  Cl1814  1  0.31250000  0.37500000  0.50000000  1
  Cl  Cl1815  1  0.31250000  0.37500000  0.75000000  1
  Cl  Cl1816  1  0.31250000  0.62500000  0.00000000  1
  Cl  Cl1817  1  0.31250000  0.62500000  0.25000000  1
  Cl  Cl1818  1  0.31250000  0.62500000  0.50000000  1
  Cl  Cl1819  1  0.31250000  0.62500000  0.75000000  1
  Cl  Cl1820  1  0.31250000  0.87500000  0.00000000  1
  Cl  Cl1821  1  0.31250000  0.87500000  0.25000000  1
  Cl  Cl1822  1  0.31250000  0.87500000  0.50000000  1
  Cl  Cl1823  1  0.31250000  0.87500000  0.75000000  1
  Cl  Cl1824  1  0.56250000  0.12500000  0.00000000  1
  Cl  Cl1825  1  0.56250000  0.12500000  0.25000000  1
  Cl  Cl1826  1  0.56250000  0.12500000  0.50000000  1
  Cl  Cl1827  1  0.56250000  0.12500000  0.75000000  1
  Cl  Cl1828  1  0.56250000  0.37500000  1.00000000  1
  Cl  Cl1829  1  0.56250000  0.37500000  0.25000000  1
  Cl  Cl1830  1  0.56250000  0.37500000  0.50000000  1
  Cl  Cl1831  1  0.56250000  0.37500000  0.75000000  1
  Cl  Cl1832  1  0.56250000  0.62500000  0.00000000  1
  Cl  Cl1833  1  0.56250000  0.62500000  0.25000000  1
  Cl  Cl1834  1  0.56250000  0.62500000  0.50000000  1
  Cl  Cl1835  1  0.56250000  0.62500000  0.75000000  1
  Cl  Cl1836  1  0.56250000  0.87500000  0.00000000  1
  Cl  Cl1837  1  0.56250000  0.87500000  0.25000000  1
  Cl  Cl1838  1  0.56250000  0.87500000  0.50000000  1
  Cl  Cl1839  1  0.56250000  0.87500000  0.75000000  1
  Cl  Cl1840  1  0.81250000  0.12500000  0.00000000  1
  Cl  Cl1841  1  0.81250000  0.12500000  0.25000000  1
  Cl  Cl1842  1  0.81250000  0.12500000  0.50000000  1
  Cl  Cl1843  1  0.81250000  0.12500000  0.75000000  1
  Cl  Cl1844  1  0.81250000  0.37500000  0.00000000  1
  Cl  Cl1845  1  0.81250000  0.37500000  0.25000000  1
  Cl  Cl1846  1  0.81250000  0.37500000  0.50000000  1
  Cl  Cl1847  1  0.81250000  0.37500000  0.75000000  1
  Cl  Cl1848  1  0.81250000  0.62500000  0.00000000  1
  Cl  Cl1849  1  0.81250000  0.62500000  0.25000000  1
  Cl  Cl1850  1  0.81250000  0.62500000  0.50000000  1
  Cl  Cl1851  1  0.81250000  0.62500000  0.75000000  1
  Cl  Cl1852  1  0.81250000  0.87500000  0.00000000  1
  Cl  Cl1853  1  0.81250000  0.87500000  0.25000000  1
  Cl  Cl1854  1  0.81250000  0.87500000  0.50000000  1
  Cl  Cl1855  1  0.81250000  0.87500000  0.75000000  1
  Cl  Cl1856  1  0.18750000  0.00000000  0.00000000  1
  Cl  Cl1857  1  0.18750000  0.00000000  0.25000000  1
  Cl  Cl1858  1  0.18750000  0.00000000  0.50000000  1
  Cl  Cl1859  1  0.18750000  0.00000000  0.75000000  1
  Cl  Cl1860  1  0.18750000  0.25000000  0.00000000  1
  Cl  Cl1861  1  0.18750000  0.25000000  0.25000000  1
  Cl  Cl1862  1  0.18750000  0.25000000  0.50000000  1
  Cl  Cl1863  1  0.18750000  0.25000000  0.75000000  1
  Cl  Cl1864  1  0.18750000  0.50000000  0.00000000  1
  Cl  Cl1865  1  0.18750000  0.50000000  0.25000000  1
  Cl  Cl1866  1  0.18750000  0.50000000  0.50000000  1
  Cl  Cl1867  1  0.18750000  0.50000000  0.75000000  1
  Cl  Cl1868  1  0.18750000  0.75000000  1.00000000  1
  Cl  Cl1869  1  0.18750000  0.75000000  0.25000000  1
  Cl  Cl1870  1  0.18750000  0.75000000  0.50000000  1
  Cl  Cl1871  1  0.18750000  0.75000000  0.75000000  1
  Cl  Cl1872  1  0.43750000  0.00000000  0.00000000  1
  Cl  Cl1873  1  0.43750000  0.00000000  0.25000000  1
  Cl  Cl1874  1  0.43750000  0.00000000  0.50000000  1
  Cl  Cl1875  1  0.43750000  0.00000000  0.75000000  1
  Cl  Cl1876  1  0.43750000  0.25000000  0.00000000  1
  Cl  Cl1877  1  0.43750000  0.25000000  0.25000000  1
  Cl  Cl1878  1  0.43750000  0.25000000  0.50000000  1
  Cl  Cl1879  1  0.43750000  0.25000000  0.75000000  1
  Cl  Cl1880  1  0.43750000  0.50000000  0.00000000  1
  Cl  Cl1881  1  0.43750000  0.50000000  0.25000000  1
  Cl  Cl1882  1  0.43750000  0.50000000  0.50000000  1
  Cl  Cl1883  1  0.43750000  0.50000000  0.75000000  1
  Cl  Cl1884  1  0.43750000  0.75000000  0.00000000  1
  Cl  Cl1885  1  0.43750000  0.75000000  0.25000000  1
  Cl  Cl1886  1  0.43750000  0.75000000  0.50000000  1
  Cl  Cl1887  1  0.43750000  0.75000000  0.75000000  1
  Cl  Cl1888  1  0.68750000  0.00000000  0.00000000  1
  Cl  Cl1889  1  0.68750000  0.00000000  0.25000000  1
  Cl  Cl1890  1  0.68750000  0.00000000  0.50000000  1
  Cl  Cl1891  1  0.68750000  0.00000000  0.75000000  1
  Cl  Cl1892  1  0.68750000  0.25000000  1.00000000  1
  Cl  Cl1893  1  0.68750000  0.25000000  0.25000000  1
  Cl  Cl1894  1  0.68750000  0.25000000  0.50000000  1
  Cl  Cl1895  1  0.68750000  0.25000000  0.75000000  1
  Cl  Cl1896  1  0.68750000  0.50000000  0.00000000  1
  Cl  Cl1897  1  0.68750000  0.50000000  0.25000000  1
  Cl  Cl1898  1  0.68750000  0.50000000  0.50000000  1
  Cl  Cl1899  1  0.68750000  0.50000000  0.75000000  1
  Cl  Cl1900  1  0.68750000  0.75000000  0.00000000  1
  Cl  Cl1901  1  0.68750000  0.75000000  0.25000000  1
  Cl  Cl1902  1  0.68750000  0.75000000  0.50000000  1
  Cl  Cl1903  1  0.68750000  0.75000000  0.75000000  1
  Cl  Cl1904  1  0.93750000  0.00000000  0.00000000  1
  Cl  Cl1905  1  0.93750000  0.00000000  0.25000000  1
  Cl  Cl1906  1  0.93750000  0.00000000  0.50000000  1
  Cl  Cl1907  1  0.93750000  0.00000000  0.75000000  1
  Cl  Cl1908  1  0.93750000  0.25000000  0.00000000  1
  Cl  Cl1909  1  0.93750000  0.25000000  0.25000000  1
  Cl  Cl1910  1  0.93750000  0.25000000  0.50000000  1
  Cl  Cl1911  1  0.93750000  0.25000000  0.75000000  1
  Cl  Cl1912  1  0.93750000  0.50000000  0.00000000  1
  Cl  Cl1913  1  0.93750000  0.50000000  0.25000000  1
  Cl  Cl1914  1  0.93750000  0.50000000  0.50000000  1
  Cl  Cl1915  1  0.93750000  0.50000000  0.75000000  1
  Cl  Cl1916  1  0.93750000  0.75000000  0.00000000  1
  Cl  Cl1917  1  0.93750000  0.75000000  0.25000000  1
  Cl  Cl1918  1  0.93750000  0.75000000  0.50000000  1
  Cl  Cl1919  1  0.93750000  0.75000000  0.75000000  1
  Cl  Cl1920  1  0.12500000  0.18750000  0.12500000  1
  Cl  Cl1921  1  0.12500000  0.18750000  0.37500000  1
  Cl  Cl1922  1  0.12500000  0.18750000  0.62500000  1
  Cl  Cl1923  1  0.12500000  0.18750000  0.87500000  1
  Cl  Cl1924  1  0.12500000  0.43750000  0.12500000  1
  Cl  Cl1925  1  0.12500000  0.43750000  0.37500000  1
  Cl  Cl1926  1  0.12500000  0.43750000  0.62500000  1
  Cl  Cl1927  1  0.12500000  0.43750000  0.87500000  1
  Cl  Cl1928  1  0.12500000  0.68750000  0.12500000  1
  Cl  Cl1929  1  0.12500000  0.68750000  0.37500000  1
  Cl  Cl1930  1  0.12500000  0.68750000  0.62500000  1
  Cl  Cl1931  1  0.12500000  0.68750000  0.87500000  1
  Cl  Cl1932  1  0.12500000  0.93750000  0.12500000  1
  Cl  Cl1933  1  0.12500000  0.93750000  0.37500000  1
  Cl  Cl1934  1  0.12500000  0.93750000  0.62500000  1
  Cl  Cl1935  1  0.12500000  0.93750000  0.87500000  1
  Cl  Cl1936  1  0.37500000  0.18750000  0.12500000  1
  Cl  Cl1937  1  0.37500000  0.18750000  0.37500000  1
  Cl  Cl1938  1  0.37500000  0.18750000  0.62500000  1
  Cl  Cl1939  1  0.37500000  0.18750000  0.87500000  1
  Cl  Cl1940  1  0.37500000  0.43750000  0.12500000  1
  Cl  Cl1941  1  0.37500000  0.43750000  0.37500000  1
  Cl  Cl1942  1  0.37500000  0.43750000  0.62500000  1
  Cl  Cl1943  1  0.37500000  0.43750000  0.87500000  1
  Cl  Cl1944  1  0.37500000  0.68750000  0.12500000  1
  Cl  Cl1945  1  0.37500000  0.68750000  0.37500000  1
  Cl  Cl1946  1  0.37500000  0.68750000  0.62500000  1
  Cl  Cl1947  1  0.37500000  0.68750000  0.87500000  1
  Cl  Cl1948  1  0.37500000  0.93750000  0.12500000  1
  Cl  Cl1949  1  0.37500000  0.93750000  0.37500000  1
  Cl  Cl1950  1  0.37500000  0.93750000  0.62500000  1
  Cl  Cl1951  1  0.37500000  0.93750000  0.87500000  1
  Cl  Cl1952  1  0.62500000  0.18750000  0.12500000  1
  Cl  Cl1953  1  0.62500000  0.18750000  0.37500000  1
  Cl  Cl1954  1  0.62500000  0.18750000  0.62500000  1
  Cl  Cl1955  1  0.62500000  0.18750000  0.87500000  1
  Cl  Cl1956  1  0.62500000  0.43750000  0.12500000  1
  Cl  Cl1957  1  0.62500000  0.43750000  0.37500000  1
  Cl  Cl1958  1  0.62500000  0.43750000  0.62500000  1
  Cl  Cl1959  1  0.62500000  0.43750000  0.87500000  1
  Cl  Cl1960  1  0.62500000  0.68750000  0.12500000  1
  Cl  Cl1961  1  0.62500000  0.68750000  0.37500000  1
  Cl  Cl1962  1  0.62500000  0.68750000  0.62500000  1
  Cl  Cl1963  1  0.62500000  0.68750000  0.87500000  1
  Cl  Cl1964  1  0.62500000  0.93750000  0.12500000  1
  Cl  Cl1965  1  0.62500000  0.93750000  0.37500000  1
  Cl  Cl1966  1  0.62500000  0.93750000  0.62500000  1
  Cl  Cl1967  1  0.62500000  0.93750000  0.87500000  1
  Cl  Cl1968  1  0.87500000  0.18750000  0.12500000  1
  Cl  Cl1969  1  0.87500000  0.18750000  0.37500000  1
  Cl  Cl1970  1  0.87500000  0.18750000  0.62500000  1
  Cl  Cl1971  1  0.87500000  0.18750000  0.87500000  1
  Cl  Cl1972  1  0.87500000  0.43750000  0.12500000  1
  Cl  Cl1973  1  0.87500000  0.43750000  0.37500000  1
  Cl  Cl1974  1  0.87500000  0.43750000  0.62500000  1
  Cl  Cl1975  1  0.87500000  0.43750000  0.87500000  1
  Cl  Cl1976  1  0.87500000  0.68750000  0.12500000  1
  Cl  Cl1977  1  0.87500000  0.68750000  0.37500000  1
  Cl  Cl1978  1  0.87500000  0.68750000  0.62500000  1
  Cl  Cl1979  1  0.87500000  0.68750000  0.87500000  1
  Cl  Cl1980  1  0.87500000  0.93750000  0.12500000  1
  Cl  Cl1981  1  0.87500000  0.93750000  0.37500000  1
  Cl  Cl1982  1  0.87500000  0.93750000  0.62500000  1
  Cl  Cl1983  1  0.87500000  0.93750000  0.87500000  1
  Cl  Cl1984  1  0.00000000  0.06250000  0.12500000  1
  Cl  Cl1985  1  0.00000000  0.06250000  0.37500000  1
  Cl  Cl1986  1  0.00000000  0.06250000  0.62500000  1
  Cl  Cl1987  1  0.00000000  0.06250000  0.87500000  1
  Cl  Cl1988  1  0.00000000  0.31250000  0.12500000  1
  Cl  Cl1989  1  0.00000000  0.31250000  0.37500000  1
  Cl  Cl1990  1  0.00000000  0.31250000  0.62500000  1
  Cl  Cl1991  1  0.00000000  0.31250000  0.87500000  1
  Cl  Cl1992  1  0.00000000  0.56250000  0.12500000  1
  Cl  Cl1993  1  0.00000000  0.56250000  0.37500000  1
  Cl  Cl1994  1  0.00000000  0.56250000  0.62500000  1
  Cl  Cl1995  1  0.00000000  0.56250000  0.87500000  1
  Cl  Cl1996  1  0.00000000  0.81250000  0.12500000  1
  Cl  Cl1997  1  0.00000000  0.81250000  0.37500000  1
  Cl  Cl1998  1  0.00000000  0.81250000  0.62500000  1
  Cl  Cl1999  1  0.00000000  0.81250000  0.87500000  1
  Cl  Cl2000  1  0.25000000  0.06250000  0.12500000  1
  Cl  Cl2001  1  0.25000000  0.06250000  0.37500000  1
  Cl  Cl2002  1  0.25000000  0.06250000  0.62500000  1
  Cl  Cl2003  1  0.25000000  0.06250000  0.87500000  1
  Cl  Cl2004  1  0.25000000  0.31250000  0.12500000  1
  Cl  Cl2005  1  0.25000000  0.31250000  0.37500000  1
  Cl  Cl2006  1  0.25000000  0.31250000  0.62500000  1
  Cl  Cl2007  1  0.25000000  0.31250000  0.87500000  1
  Cl  Cl2008  1  0.25000000  0.56250000  0.12500000  1
  Cl  Cl2009  1  0.25000000  0.56250000  0.37500000  1
  Cl  Cl2010  1  0.25000000  0.56250000  0.62500000  1
  Cl  Cl2011  1  0.25000000  0.56250000  0.87500000  1
  Cl  Cl2012  1  0.25000000  0.81250000  0.12500000  1
  Cl  Cl2013  1  0.25000000  0.81250000  0.37500000  1
  Cl  Cl2014  1  0.25000000  0.81250000  0.62500000  1
  Cl  Cl2015  1  0.25000000  0.81250000  0.87500000  1
  Cl  Cl2016  1  0.50000000  0.06250000  0.12500000  1
  Cl  Cl2017  1  0.50000000  0.06250000  0.37500000  1
  Cl  Cl2018  1  0.50000000  0.06250000  0.62500000  1
  Cl  Cl2019  1  0.50000000  0.06250000  0.87500000  1
  Cl  Cl2020  1  0.50000000  0.31250000  0.12500000  1
  Cl  Cl2021  1  0.50000000  0.31250000  0.37500000  1
  Cl  Cl2022  1  0.50000000  0.31250000  0.62500000  1
  Cl  Cl2023  1  0.50000000  0.31250000  0.87500000  1
  Cl  Cl2024  1  0.50000000  0.56250000  0.12500000  1
  Cl  Cl2025  1  0.50000000  0.56250000  0.37500000  1
  Cl  Cl2026  1  0.50000000  0.56250000  0.62500000  1
  Cl  Cl2027  1  0.50000000  0.56250000  0.87500000  1
  Cl  Cl2028  1  0.50000000  0.81250000  0.12500000  1
  Cl  Cl2029  1  0.50000000  0.81250000  0.37500000  1
  Cl  Cl2030  1  0.50000000  0.81250000  0.62500000  1
  Cl  Cl2031  1  0.50000000  0.81250000  0.87500000  1
  Cl  Cl2032  1  0.75000000  0.06250000  0.12500000  1
  Cl  Cl2033  1  0.75000000  0.06250000  0.37500000  1
  Cl  Cl2034  1  0.75000000  0.06250000  0.62500000  1
  Cl  Cl2035  1  0.75000000  0.06250000  0.87500000  1
  Cl  Cl2036  1  0.75000000  0.31250000  0.12500000  1
  Cl  Cl2037  1  0.75000000  0.31250000  0.37500000  1
  Cl  Cl2038  1  0.75000000  0.31250000  0.62500000  1
  Cl  Cl2039  1  0.75000000  0.31250000  0.87500000  1
  Cl  Cl2040  1  0.75000000  0.56250000  0.12500000  1
  Cl  Cl2041  1  0.75000000  0.56250000  0.37500000  1
  Cl  Cl2042  1  0.75000000  0.56250000  0.62500000  1
  Cl  Cl2043  1  0.75000000  0.56250000  0.87500000  1
  Cl  Cl2044  1  0.75000000  0.81250000  0.12500000  1
  Cl  Cl2045  1  0.75000000  0.81250000  0.37500000  1
  Cl  Cl2046  1  0.75000000  0.81250000  0.62500000  1
  Cl  Cl2047  1  0.75000000  0.81250000  0.87500000  1
  Cl  Cl2048  1  0.00000000  0.18750000  0.00000000  1
  Cl  Cl2049  1  0.00000000  0.18750000  0.25000000  1
  Cl  Cl2050  1  0.00000000  0.18750000  0.50000000  1
  Cl  Cl2051  1  0.00000000  0.18750000  0.75000000  1
  Cl  Cl2052  1  0.00000000  0.43750000  0.00000000  1
  Cl  Cl2053  1  0.00000000  0.43750000  0.25000000  1
  Cl  Cl2054  1  0.00000000  0.43750000  0.50000000  1
  Cl  Cl2055  1  0.00000000  0.43750000  0.75000000  1
  Cl  Cl2056  1  0.00000000  0.68750000  0.00000000  1
  Cl  Cl2057  1  0.00000000  0.68750000  0.25000000  1
  Cl  Cl2058  1  0.00000000  0.68750000  0.50000000  1
  Cl  Cl2059  1  0.00000000  0.68750000  0.75000000  1
  Cl  Cl2060  1  0.00000000  0.93750000  0.00000000  1
  Cl  Cl2061  1  0.00000000  0.93750000  0.25000000  1
  Cl  Cl2062  1  0.00000000  0.93750000  0.50000000  1
  Cl  Cl2063  1  0.00000000  0.93750000  0.75000000  1
  Cl  Cl2064  1  0.25000000  0.18750000  0.00000000  1
  Cl  Cl2065  1  0.25000000  0.18750000  0.25000000  1
  Cl  Cl2066  1  0.25000000  0.18750000  0.50000000  1
  Cl  Cl2067  1  0.25000000  0.18750000  0.75000000  1
  Cl  Cl2068  1  0.25000000  0.43750000  0.00000000  1
  Cl  Cl2069  1  0.25000000  0.43750000  0.25000000  1
  Cl  Cl2070  1  0.25000000  0.43750000  0.50000000  1
  Cl  Cl2071  1  0.25000000  0.43750000  0.75000000  1
  Cl  Cl2072  1  0.25000000  0.68750000  0.00000000  1
  Cl  Cl2073  1  0.25000000  0.68750000  0.25000000  1
  Cl  Cl2074  1  0.25000000  0.68750000  0.50000000  1
  Cl  Cl2075  1  0.25000000  0.68750000  0.75000000  1
  Cl  Cl2076  1  0.25000000  0.93750000  0.00000000  1
  Cl  Cl2077  1  0.25000000  0.93750000  0.25000000  1
  Cl  Cl2078  1  0.25000000  0.93750000  0.50000000  1
  Cl  Cl2079  1  0.25000000  0.93750000  0.75000000  1
  Cl  Cl2080  1  0.50000000  0.18750000  0.00000000  1
  Cl  Cl2081  1  0.50000000  0.18750000  0.25000000  1
  Cl  Cl2082  1  0.50000000  0.18750000  0.50000000  1
  Cl  Cl2083  1  0.50000000  0.18750000  0.75000000  1
  Cl  Cl2084  1  0.50000000  0.43750000  1.00000000  1
  Cl  Cl2085  1  0.50000000  0.43750000  0.25000000  1
  Cl  Cl2086  1  0.50000000  0.43750000  0.50000000  1
  Cl  Cl2087  1  0.50000000  0.43750000  0.75000000  1
  Cl  Cl2088  1  0.50000000  0.68750000  0.00000000  1
  Cl  Cl2089  1  0.50000000  0.68750000  0.25000000  1
  Cl  Cl2090  1  0.50000000  0.68750000  0.50000000  1
  Cl  Cl2091  1  0.50000000  0.68750000  0.75000000  1
  Cl  Cl2092  1  0.50000000  0.93750000  0.00000000  1
  Cl  Cl2093  1  0.50000000  0.93750000  0.25000000  1
  Cl  Cl2094  1  0.50000000  0.93750000  0.50000000  1
  Cl  Cl2095  1  0.50000000  0.93750000  0.75000000  1
  Cl  Cl2096  1  0.75000000  0.18750000  1.00000000  1
  Cl  Cl2097  1  0.75000000  0.18750000  0.25000000  1
  Cl  Cl2098  1  0.75000000  0.18750000  0.50000000  1
  Cl  Cl2099  1  0.75000000  0.18750000  0.75000000  1
  Cl  Cl2100  1  0.75000000  0.43750000  0.00000000  1
  Cl  Cl2101  1  0.75000000  0.43750000  0.25000000  1
  Cl  Cl2102  1  0.75000000  0.43750000  0.50000000  1
  Cl  Cl2103  1  0.75000000  0.43750000  0.75000000  1
  Cl  Cl2104  1  0.75000000  0.68750000  0.00000000  1
  Cl  Cl2105  1  0.75000000  0.68750000  0.25000000  1
  Cl  Cl2106  1  0.75000000  0.68750000  0.50000000  1
  Cl  Cl2107  1  0.75000000  0.68750000  0.75000000  1
  Cl  Cl2108  1  0.75000000  0.93750000  0.00000000  1
  Cl  Cl2109  1  0.75000000  0.93750000  0.25000000  1
  Cl  Cl2110  1  0.75000000  0.93750000  0.50000000  1
  Cl  Cl2111  1  0.75000000  0.93750000  0.75000000  1
  Cl  Cl2112  1  0.12500000  0.06250000  0.00000000  1
  Cl  Cl2113  1  0.12500000  0.06250000  0.25000000  1
  Cl  Cl2114  1  0.12500000  0.06250000  0.50000000  1
  Cl  Cl2115  1  0.12500000  0.06250000  0.75000000  1
  Cl  Cl2116  1  0.12500000  0.31250000  0.00000000  1
  Cl  Cl2117  1  0.12500000  0.31250000  0.25000000  1
  Cl  Cl2118  1  0.12500000  0.31250000  0.50000000  1
  Cl  Cl2119  1  0.12500000  0.31250000  0.75000000  1
  Cl  Cl2120  1  0.12500000  0.56250000  0.00000000  1
  Cl  Cl2121  1  0.12500000  0.56250000  0.25000000  1
  Cl  Cl2122  1  0.12500000  0.56250000  0.50000000  1
  Cl  Cl2123  1  0.12500000  0.56250000  0.75000000  1
  Cl  Cl2124  1  0.12500000  0.81250000  1.00000000  1
  Cl  Cl2125  1  0.12500000  0.81250000  0.25000000  1
  Cl  Cl2126  1  0.12500000  0.81250000  0.50000000  1
  Cl  Cl2127  1  0.12500000  0.81250000  0.75000000  1
  Cl  Cl2128  1  0.37500000  0.06250000  0.00000000  1
  Cl  Cl2129  1  0.37500000  0.06250000  0.25000000  1
  Cl  Cl2130  1  0.37500000  0.06250000  0.50000000  1
  Cl  Cl2131  1  0.37500000  0.06250000  0.75000000  1
  Cl  Cl2132  1  0.37500000  0.31250000  0.00000000  1
  Cl  Cl2133  1  0.37500000  0.31250000  0.25000000  1
  Cl  Cl2134  1  0.37500000  0.31250000  0.50000000  1
  Cl  Cl2135  1  0.37500000  0.31250000  0.75000000  1
  Cl  Cl2136  1  0.37500000  0.56250000  0.00000000  1
  Cl  Cl2137  1  0.37500000  0.56250000  0.25000000  1
  Cl  Cl2138  1  0.37500000  0.56250000  0.50000000  1
  Cl  Cl2139  1  0.37500000  0.56250000  0.75000000  1
  Cl  Cl2140  1  0.37500000  0.81250000  0.00000000  1
  Cl  Cl2141  1  0.37500000  0.81250000  0.25000000  1
  Cl  Cl2142  1  0.37500000  0.81250000  0.50000000  1
  Cl  Cl2143  1  0.37500000  0.81250000  0.75000000  1
  Cl  Cl2144  1  0.62500000  0.06250000  0.00000000  1
  Cl  Cl2145  1  0.62500000  0.06250000  0.25000000  1
  Cl  Cl2146  1  0.62500000  0.06250000  0.50000000  1
  Cl  Cl2147  1  0.62500000  0.06250000  0.75000000  1
  Cl  Cl2148  1  0.62500000  0.31250000  1.00000000  1
  Cl  Cl2149  1  0.62500000  0.31250000  0.25000000  1
  Cl  Cl2150  1  0.62500000  0.31250000  0.50000000  1
  Cl  Cl2151  1  0.62500000  0.31250000  0.75000000  1
  Cl  Cl2152  1  0.62500000  0.56250000  0.00000000  1
  Cl  Cl2153  1  0.62500000  0.56250000  0.25000000  1
  Cl  Cl2154  1  0.62500000  0.56250000  0.50000000  1
  Cl  Cl2155  1  0.62500000  0.56250000  0.75000000  1
  Cl  Cl2156  1  0.62500000  0.81250000  0.00000000  1
  Cl  Cl2157  1  0.62500000  0.81250000  0.25000000  1
  Cl  Cl2158  1  0.62500000  0.81250000  0.50000000  1
  Cl  Cl2159  1  0.62500000  0.81250000  0.75000000  1
  Cl  Cl2160  1  0.87500000  0.06250000  1.00000000  1
  Cl  Cl2161  1  0.87500000  0.06250000  0.25000000  1
  Cl  Cl2162  1  0.87500000  0.06250000  0.50000000  1
  Cl  Cl2163  1  0.87500000  0.06250000  0.75000000  1
  Cl  Cl2164  1  0.87500000  0.31250000  0.00000000  1
  Cl  Cl2165  1  0.87500000  0.31250000  0.25000000  1
  Cl  Cl2166  1  0.87500000  0.31250000  0.50000000  1
  Cl  Cl2167  1  0.87500000  0.31250000  0.75000000  1
  Cl  Cl2168  1  0.87500000  0.56250000  0.00000000  1
  Cl  Cl2169  1  0.87500000  0.56250000  0.25000000  1
  Cl  Cl2170  1  0.87500000  0.56250000  0.50000000  1
  Cl  Cl2171  1  0.87500000  0.56250000  0.75000000  1
  Cl  Cl2172  1  0.87500000  0.81250000  0.00000000  1
  Cl  Cl2173  1  0.87500000  0.81250000  0.25000000  1
  Cl  Cl2174  1  0.87500000  0.81250000  0.50000000  1
  Cl  Cl2175  1  0.87500000  0.81250000  0.75000000  1
  Cl  Cl2176  1  0.12500000  0.12500000  0.06250000  1
  Cl  Cl2177  1  0.12500000  0.12500000  0.31250000  1
  Cl  Cl2178  1  0.12500000  0.12500000  0.56250000  1
  Cl  Cl2179  1  0.12500000  0.12500000  0.81250000  1
  Cl  Cl2180  1  0.12500000  0.37500000  0.06250000  1
  Cl  Cl2181  1  0.12500000  0.37500000  0.31250000  1
  Cl  Cl2182  1  0.12500000  0.37500000  0.56250000  1
  Cl  Cl2183  1  0.12500000  0.37500000  0.81250000  1
  Cl  Cl2184  1  0.12500000  0.62500000  0.06250000  1
  Cl  Cl2185  1  0.12500000  0.62500000  0.31250000  1
  Cl  Cl2186  1  0.12500000  0.62500000  0.56250000  1
  Cl  Cl2187  1  0.12500000  0.62500000  0.81250000  1
  Cl  Cl2188  1  0.12500000  0.87500000  0.06250000  1
  Cl  Cl2189  1  0.12500000  0.87500000  0.31250000  1
  Cl  Cl2190  1  0.12500000  0.87500000  0.56250000  1
  Cl  Cl2191  1  0.12500000  0.87500000  0.81250000  1
  Cl  Cl2192  1  0.37500000  0.12500000  0.06250000  1
  Cl  Cl2193  1  0.37500000  0.12500000  0.31250000  1
  Cl  Cl2194  1  0.37500000  0.12500000  0.56250000  1
  Cl  Cl2195  1  0.37500000  0.12500000  0.81250000  1
  Cl  Cl2196  1  0.37500000  0.37500000  0.06250000  1
  Cl  Cl2197  1  0.37500000  0.37500000  0.31250000  1
  Cl  Cl2198  1  0.37500000  0.37500000  0.56250000  1
  Cl  Cl2199  1  0.37500000  0.37500000  0.81250000  1
  Cl  Cl2200  1  0.37500000  0.62500000  0.06250000  1
  Cl  Cl2201  1  0.37500000  0.62500000  0.31250000  1
  Cl  Cl2202  1  0.37500000  0.62500000  0.56250000  1
  Cl  Cl2203  1  0.37500000  0.62500000  0.81250000  1
  Cl  Cl2204  1  0.37500000  0.87500000  0.06250000  1
  Cl  Cl2205  1  0.37500000  0.87500000  0.31250000  1
  Cl  Cl2206  1  0.37500000  0.87500000  0.56250000  1
  Cl  Cl2207  1  0.37500000  0.87500000  0.81250000  1
  Cl  Cl2208  1  0.62500000  0.12500000  0.06250000  1
  Cl  Cl2209  1  0.62500000  0.12500000  0.31250000  1
  Cl  Cl2210  1  0.62500000  0.12500000  0.56250000  1
  Cl  Cl2211  1  0.62500000  0.12500000  0.81250000  1
  Cl  Cl2212  1  0.62500000  0.37500000  0.06250000  1
  Cl  Cl2213  1  0.62500000  0.37500000  0.31250000  1
  Cl  Cl2214  1  0.62500000  0.37500000  0.56250000  1
  Cl  Cl2215  1  0.62500000  0.37500000  0.81250000  1
  Cl  Cl2216  1  0.62500000  0.62500000  0.06250000  1
  Cl  Cl2217  1  0.62500000  0.62500000  0.31250000  1
  Cl  Cl2218  1  0.62500000  0.62500000  0.56250000  1
  Cl  Cl2219  1  0.62500000  0.62500000  0.81250000  1
  Cl  Cl2220  1  0.62500000  0.87500000  0.06250000  1
  Cl  Cl2221  1  0.62500000  0.87500000  0.31250000  1
  Cl  Cl2222  1  0.62500000  0.87500000  0.56250000  1
  Cl  Cl2223  1  0.62500000  0.87500000  0.81250000  1
  Cl  Cl2224  1  0.87500000  0.12500000  0.06250000  1
  Cl  Cl2225  1  0.87500000  0.12500000  0.31250000  1
  Cl  Cl2226  1  0.87500000  0.12500000  0.56250000  1
  Cl  Cl2227  1  0.87500000  0.12500000  0.81250000  1
  Cl  Cl2228  1  0.87500000  0.37500000  0.06250000  1
  Cl  Cl2229  1  0.87500000  0.37500000  0.31250000  1
  Cl  Cl2230  1  0.87500000  0.37500000  0.56250000  1
  Cl  Cl2231  1  0.87500000  0.37500000  0.81250000  1
  Cl  Cl2232  1  0.87500000  0.62500000  0.06250000  1
  Cl  Cl2233  1  0.87500000  0.62500000  0.31250000  1
  Cl  Cl2234  1  0.87500000  0.62500000  0.56250000  1
  Cl  Cl2235  1  0.87500000  0.62500000  0.81250000  1
  Cl  Cl2236  1  0.87500000  0.87500000  0.06250000  1
  Cl  Cl2237  1  0.87500000  0.87500000  0.31250000  1
  Cl  Cl2238  1  0.87500000  0.87500000  0.56250000  1
  Cl  Cl2239  1  0.87500000  0.87500000  0.81250000  1
  Cl  Cl2240  1  0.00000000  0.00000000  0.06250000  1
  Cl  Cl2241  1  0.00000000  0.00000000  0.31250000  1
  Cl  Cl2242  1  0.00000000  0.00000000  0.56250000  1
  Cl  Cl2243  1  0.00000000  0.00000000  0.81250000  1
  Cl  Cl2244  1  0.00000000  0.25000000  0.06250000  1
  Cl  Cl2245  1  0.00000000  0.25000000  0.31250000  1
  Cl  Cl2246  1  0.00000000  0.25000000  0.56250000  1
  Cl  Cl2247  1  0.00000000  0.25000000  0.81250000  1
  Cl  Cl2248  1  0.00000000  0.50000000  0.06250000  1
  Cl  Cl2249  1  0.00000000  0.50000000  0.31250000  1
  Cl  Cl2250  1  0.00000000  0.50000000  0.56250000  1
  Cl  Cl2251  1  0.00000000  0.50000000  0.81250000  1
  Cl  Cl2252  1  0.00000000  0.75000000  0.06250000  1
  Cl  Cl2253  1  0.00000000  0.75000000  0.31250000  1
  Cl  Cl2254  1  0.00000000  0.75000000  0.56250000  1
  Cl  Cl2255  1  0.00000000  0.75000000  0.81250000  1
  Cl  Cl2256  1  0.25000000  0.00000000  0.06250000  1
  Cl  Cl2257  1  0.25000000  0.00000000  0.31250000  1
  Cl  Cl2258  1  0.25000000  0.00000000  0.56250000  1
  Cl  Cl2259  1  0.25000000  0.00000000  0.81250000  1
  Cl  Cl2260  1  0.25000000  0.25000000  0.06250000  1
  Cl  Cl2261  1  0.25000000  0.25000000  0.31250000  1
  Cl  Cl2262  1  0.25000000  0.25000000  0.56250000  1
  Cl  Cl2263  1  0.25000000  0.25000000  0.81250000  1
  Cl  Cl2264  1  0.25000000  0.50000000  0.06250000  1
  Cl  Cl2265  1  0.25000000  0.50000000  0.31250000  1
  Cl  Cl2266  1  0.25000000  0.50000000  0.56250000  1
  Cl  Cl2267  1  0.25000000  0.50000000  0.81250000  1
  Cl  Cl2268  1  0.25000000  0.75000000  0.06250000  1
  Cl  Cl2269  1  0.25000000  0.75000000  0.31250000  1
  Cl  Cl2270  1  0.25000000  0.75000000  0.56250000  1
  Cl  Cl2271  1  0.25000000  0.75000000  0.81250000  1
  Cl  Cl2272  1  0.50000000  0.00000000  0.06250000  1
  Cl  Cl2273  1  0.50000000  0.00000000  0.31250000  1
  Cl  Cl2274  1  0.50000000  0.00000000  0.56250000  1
  Cl  Cl2275  1  0.50000000  0.00000000  0.81250000  1
  Cl  Cl2276  1  0.50000000  0.25000000  0.06250000  1
  Cl  Cl2277  1  0.50000000  0.25000000  0.31250000  1
  Cl  Cl2278  1  0.50000000  0.25000000  0.56250000  1
  Cl  Cl2279  1  0.50000000  0.25000000  0.81250000  1
  Cl  Cl2280  1  0.50000000  0.50000000  0.06250000  1
  Cl  Cl2281  1  0.50000000  0.50000000  0.31250000  1
  Cl  Cl2282  1  0.50000000  0.50000000  0.56250000  1
  Cl  Cl2283  1  0.50000000  0.50000000  0.81250000  1
  Cl  Cl2284  1  0.50000000  0.75000000  0.06250000  1
  Cl  Cl2285  1  0.50000000  0.75000000  0.31250000  1
  Cl  Cl2286  1  0.50000000  0.75000000  0.56250000  1
  Cl  Cl2287  1  0.50000000  0.75000000  0.81250000  1
  Cl  Cl2288  1  0.75000000  0.00000000  0.06250000  1
  Cl  Cl2289  1  0.75000000  0.00000000  0.31250000  1
  Cl  Cl2290  1  0.75000000  0.00000000  0.56250000  1
  Cl  Cl2291  1  0.75000000  0.00000000  0.81250000  1
  Cl  Cl2292  1  0.75000000  0.25000000  0.06250000  1
  Cl  Cl2293  1  0.75000000  0.25000000  0.31250000  1
  Cl  Cl2294  1  0.75000000  0.25000000  0.56250000  1
  Cl  Cl2295  1  0.75000000  0.25000000  0.81250000  1
  Cl  Cl2296  1  0.75000000  0.50000000  0.06250000  1
  Cl  Cl2297  1  0.75000000  0.50000000  0.31250000  1
  Cl  Cl2298  1  0.75000000  0.50000000  0.56250000  1
  Cl  Cl2299  1  0.75000000  0.50000000  0.81250000  1
  Cl  Cl2300  1  0.75000000  0.75000000  0.06250000  1
  Cl  Cl2301  1  0.75000000  0.75000000  0.31250000  1
  Cl  Cl2302  1  0.75000000  0.75000000  0.56250000  1
  Cl  Cl2303  1  0.75000000  0.75000000  0.81250000  1
  Cl  Cl2304  1  0.00000000  0.12500000  0.18750000  1
  Cl  Cl2305  1  0.00000000  0.12500000  0.43750000  1
  Cl  Cl2306  1  0.00000000  0.12500000  0.68750000  1
  Cl  Cl2307  1  0.00000000  0.12500000  0.93750000  1
  Cl  Cl2308  1  0.00000000  0.37500000  0.18750000  1
  Cl  Cl2309  1  0.00000000  0.37500000  0.43750000  1
  Cl  Cl2310  1  0.00000000  0.37500000  0.68750000  1
  Cl  Cl2311  1  0.00000000  0.37500000  0.93750000  1
  Cl  Cl2312  1  0.00000000  0.62500000  0.18750000  1
  Cl  Cl2313  1  0.00000000  0.62500000  0.43750000  1
  Cl  Cl2314  1  0.00000000  0.62500000  0.68750000  1
  Cl  Cl2315  1  0.00000000  0.62500000  0.93750000  1
  Cl  Cl2316  1  0.00000000  0.87500000  0.18750000  1
  Cl  Cl2317  1  0.00000000  0.87500000  0.43750000  1
  Cl  Cl2318  1  0.00000000  0.87500000  0.68750000  1
  Cl  Cl2319  1  0.00000000  0.87500000  0.93750000  1
  Cl  Cl2320  1  0.25000000  0.12500000  0.18750000  1
  Cl  Cl2321  1  0.25000000  0.12500000  0.43750000  1
  Cl  Cl2322  1  0.25000000  0.12500000  0.68750000  1
  Cl  Cl2323  1  0.25000000  0.12500000  0.93750000  1
  Cl  Cl2324  1  0.25000000  0.37500000  0.18750000  1
  Cl  Cl2325  1  0.25000000  0.37500000  0.43750000  1
  Cl  Cl2326  1  0.25000000  0.37500000  0.68750000  1
  Cl  Cl2327  1  0.25000000  0.37500000  0.93750000  1
  Cl  Cl2328  1  0.25000000  0.62500000  0.18750000  1
  Cl  Cl2329  1  0.25000000  0.62500000  0.43750000  1
  Cl  Cl2330  1  0.25000000  0.62500000  0.68750000  1
  Cl  Cl2331  1  0.25000000  0.62500000  0.93750000  1
  Cl  Cl2332  1  0.25000000  0.87500000  0.18750000  1
  Cl  Cl2333  1  0.25000000  0.87500000  0.43750000  1
  Cl  Cl2334  1  0.25000000  0.87500000  0.68750000  1
  Cl  Cl2335  1  0.25000000  0.87500000  0.93750000  1
  Cl  Cl2336  1  0.50000000  0.12500000  0.18750000  1
  Cl  Cl2337  1  0.50000000  0.12500000  0.43750000  1
  Cl  Cl2338  1  0.50000000  0.12500000  0.68750000  1
  Cl  Cl2339  1  0.50000000  0.12500000  0.93750000  1
  Cl  Cl2340  1  0.50000000  0.37500000  0.18750000  1
  Cl  Cl2341  1  0.50000000  0.37500000  0.43750000  1
  Cl  Cl2342  1  0.50000000  0.37500000  0.68750000  1
  Cl  Cl2343  1  0.50000000  0.37500000  0.93750000  1
  Cl  Cl2344  1  0.50000000  0.62500000  0.18750000  1
  Cl  Cl2345  1  0.50000000  0.62500000  0.43750000  1
  Cl  Cl2346  1  0.50000000  0.62500000  0.68750000  1
  Cl  Cl2347  1  0.50000000  0.62500000  0.93750000  1
  Cl  Cl2348  1  0.50000000  0.87500000  0.18750000  1
  Cl  Cl2349  1  0.50000000  0.87500000  0.43750000  1
  Cl  Cl2350  1  0.50000000  0.87500000  0.68750000  1
  Cl  Cl2351  1  0.50000000  0.87500000  0.93750000  1
  Cl  Cl2352  1  0.75000000  0.12500000  0.18750000  1
  Cl  Cl2353  1  0.75000000  0.12500000  0.43750000  1
  Cl  Cl2354  1  0.75000000  0.12500000  0.68750000  1
  Cl  Cl2355  1  0.75000000  0.12500000  0.93750000  1
  Cl  Cl2356  1  0.75000000  0.37500000  0.18750000  1
  Cl  Cl2357  1  0.75000000  0.37500000  0.43750000  1
  Cl  Cl2358  1  0.75000000  0.37500000  0.68750000  1
  Cl  Cl2359  1  0.75000000  0.37500000  0.93750000  1
  Cl  Cl2360  1  0.75000000  0.62500000  0.18750000  1
  Cl  Cl2361  1  0.75000000  0.62500000  0.43750000  1
  Cl  Cl2362  1  0.75000000  0.62500000  0.68750000  1
  Cl  Cl2363  1  0.75000000  0.62500000  0.93750000  1
  Cl  Cl2364  1  0.75000000  0.87500000  0.18750000  1
  Cl  Cl2365  1  0.75000000  0.87500000  0.43750000  1
  Cl  Cl2366  1  0.75000000  0.87500000  0.68750000  1
  Cl  Cl2367  1  0.75000000  0.87500000  0.93750000  1
  Cl  Cl2368  1  0.12500000  0.00000000  0.18750000  1
  Cl  Cl2369  1  0.12500000  0.00000000  0.43750000  1
  Cl  Cl2370  1  0.12500000  0.00000000  0.68750000  1
  Cl  Cl2371  1  0.12500000  0.00000000  0.93750000  1
  Cl  Cl2372  1  0.12500000  0.25000000  0.18750000  1
  Cl  Cl2373  1  0.12500000  0.25000000  0.43750000  1
  Cl  Cl2374  1  0.12500000  0.25000000  0.68750000  1
  Cl  Cl2375  1  0.12500000  0.25000000  0.93750000  1
  Cl  Cl2376  1  0.12500000  0.50000000  0.18750000  1
  Cl  Cl2377  1  0.12500000  0.50000000  0.43750000  1
  Cl  Cl2378  1  0.12500000  0.50000000  0.68750000  1
  Cl  Cl2379  1  0.12500000  0.50000000  0.93750000  1
  Cl  Cl2380  1  0.12500000  0.75000000  0.18750000  1
  Cl  Cl2381  1  0.12500000  0.75000000  0.43750000  1
  Cl  Cl2382  1  0.12500000  0.75000000  0.68750000  1
  Cl  Cl2383  1  0.12500000  0.75000000  0.93750000  1
  Cl  Cl2384  1  0.37500000  0.00000000  0.18750000  1
  Cl  Cl2385  1  0.37500000  0.00000000  0.43750000  1
  Cl  Cl2386  1  0.37500000  0.00000000  0.68750000  1
  Cl  Cl2387  1  0.37500000  0.00000000  0.93750000  1
  Cl  Cl2388  1  0.37500000  0.25000000  0.18750000  1
  Cl  Cl2389  1  0.37500000  0.25000000  0.43750000  1
  Cl  Cl2390  1  0.37500000  0.25000000  0.68750000  1
  Cl  Cl2391  1  0.37500000  0.25000000  0.93750000  1
  Cl  Cl2392  1  0.37500000  0.50000000  0.18750000  1
  Cl  Cl2393  1  0.37500000  0.50000000  0.43750000  1
  Cl  Cl2394  1  0.37500000  0.50000000  0.68750000  1
  Cl  Cl2395  1  0.37500000  0.50000000  0.93750000  1
  Cl  Cl2396  1  0.37500000  0.75000000  0.18750000  1
  Cl  Cl2397  1  0.37500000  0.75000000  0.43750000  1
  Cl  Cl2398  1  0.37500000  0.75000000  0.68750000  1
  Cl  Cl2399  1  0.37500000  0.75000000  0.93750000  1
  Cl  Cl2400  1  0.62500000  0.00000000  0.18750000  1
  Cl  Cl2401  1  0.62500000  0.00000000  0.43750000  1
  Cl  Cl2402  1  0.62500000  0.00000000  0.68750000  1
  Cl  Cl2403  1  0.62500000  0.00000000  0.93750000  1
  Cl  Cl2404  1  0.62500000  0.25000000  0.18750000  1
  Cl  Cl2405  1  0.62500000  0.25000000  0.43750000  1
  Cl  Cl2406  1  0.62500000  0.25000000  0.68750000  1
  Cl  Cl2407  1  0.62500000  0.25000000  0.93750000  1
  Cl  Cl2408  1  0.62500000  0.50000000  0.18750000  1
  Cl  Cl2409  1  0.62500000  0.50000000  0.43750000  1
  Cl  Cl2410  1  0.62500000  0.50000000  0.68750000  1
  Cl  Cl2411  1  0.62500000  0.50000000  0.93750000  1
  Cl  Cl2412  1  0.62500000  0.75000000  0.18750000  1
  Cl  Cl2413  1  0.62500000  0.75000000  0.43750000  1
  Cl  Cl2414  1  0.62500000  0.75000000  0.68750000  1
  Cl  Cl2415  1  0.62500000  0.75000000  0.93750000  1
  Cl  Cl2416  1  0.87500000  0.00000000  0.18750000  1
  Cl  Cl2417  1  0.87500000  0.00000000  0.43750000  1
  Cl  Cl2418  1  0.87500000  0.00000000  0.68750000  1
  Cl  Cl2419  1  0.87500000  0.00000000  0.93750000  1
  Cl  Cl2420  1  0.87500000  0.25000000  0.18750000  1
  Cl  Cl2421  1  0.87500000  0.25000000  0.43750000  1
  Cl  Cl2422  1  0.87500000  0.25000000  0.68750000  1
  Cl  Cl2423  1  0.87500000  0.25000000  0.93750000  1
  Cl  Cl2424  1  0.87500000  0.50000000  0.18750000  1
  Cl  Cl2425  1  0.87500000  0.50000000  0.43750000  1
  Cl  Cl2426  1  0.87500000  0.50000000  0.68750000  1
  Cl  Cl2427  1  0.87500000  0.50000000  0.93750000  1
  Cl  Cl2428  1  0.87500000  0.75000000  0.18750000  1
  Cl  Cl2429  1  0.87500000  0.75000000  0.43750000  1
  Cl  Cl2430  1  0.87500000  0.75000000  0.68750000  1
  Cl  Cl2431  1  0.87500000  0.75000000  0.93750000  1
  Cl  Cl2432  1  0.12500000  0.12500000  0.18750000  1
  Cl  Cl2433  1  0.12500000  0.12500000  0.43750000  1
  Cl  Cl2434  1  0.12500000  0.12500000  0.68750000  1
  Cl  Cl2435  1  0.12500000  0.12500000  0.93750000  1
  Cl  Cl2436  1  0.12500000  0.37500000  0.18750000  1
  Cl  Cl2437  1  0.12500000  0.37500000  0.43750000  1
  Cl  Cl2438  1  0.12500000  0.37500000  0.68750000  1
  Cl  Cl2439  1  0.12500000  0.37500000  0.93750000  1
  Cl  Cl2440  1  0.12500000  0.62500000  0.18750000  1
  Cl  Cl2441  1  0.12500000  0.62500000  0.43750000  1
  Cl  Cl2442  1  0.12500000  0.62500000  0.68750000  1
  Cl  Cl2443  1  0.12500000  0.62500000  0.93750000  1
  Cl  Cl2444  1  0.12500000  0.87500000  0.18750000  1
  Cl  Cl2445  1  0.12500000  0.87500000  0.43750000  1
  Cl  Cl2446  1  0.12500000  0.87500000  0.68750000  1
  Cl  Cl2447  1  0.12500000  0.87500000  0.93750000  1
  Cl  Cl2448  1  0.37500000  0.12500000  0.18750000  1
  Cl  Cl2449  1  0.37500000  0.12500000  0.43750000  1
  Cl  Cl2450  1  0.37500000  0.12500000  0.68750000  1
  Cl  Cl2451  1  0.37500000  0.12500000  0.93750000  1
  Cl  Cl2452  1  0.37500000  0.37500000  0.18750000  1
  Cl  Cl2453  1  0.37500000  0.37500000  0.43750000  1
  Cl  Cl2454  1  0.37500000  0.37500000  0.68750000  1
  Cl  Cl2455  1  0.37500000  0.37500000  0.93750000  1
  Cl  Cl2456  1  0.37500000  0.62500000  0.18750000  1
  Cl  Cl2457  1  0.37500000  0.62500000  0.43750000  1
  Cl  Cl2458  1  0.37500000  0.62500000  0.68750000  1
  Cl  Cl2459  1  0.37500000  0.62500000  0.93750000  1
  Cl  Cl2460  1  0.37500000  0.87500000  0.18750000  1
  Cl  Cl2461  1  0.37500000  0.87500000  0.43750000  1
  Cl  Cl2462  1  0.37500000  0.87500000  0.68750000  1
  Cl  Cl2463  1  0.37500000  0.87500000  0.93750000  1
  Cl  Cl2464  1  0.62500000  0.12500000  0.18750000  1
  Cl  Cl2465  1  0.62500000  0.12500000  0.43750000  1
  Cl  Cl2466  1  0.62500000  0.12500000  0.68750000  1
  Cl  Cl2467  1  0.62500000  0.12500000  0.93750000  1
  Cl  Cl2468  1  0.62500000  0.37500000  0.18750000  1
  Cl  Cl2469  1  0.62500000  0.37500000  0.43750000  1
  Cl  Cl2470  1  0.62500000  0.37500000  0.68750000  1
  Cl  Cl2471  1  0.62500000  0.37500000  0.93750000  1
  Cl  Cl2472  1  0.62500000  0.62500000  0.18750000  1
  Cl  Cl2473  1  0.62500000  0.62500000  0.43750000  1
  Cl  Cl2474  1  0.62500000  0.62500000  0.68750000  1
  Cl  Cl2475  1  0.62500000  0.62500000  0.93750000  1
  Cl  Cl2476  1  0.62500000  0.87500000  0.18750000  1
  Cl  Cl2477  1  0.62500000  0.87500000  0.43750000  1
  Cl  Cl2478  1  0.62500000  0.87500000  0.68750000  1
  Cl  Cl2479  1  0.62500000  0.87500000  0.93750000  1
  Cl  Cl2480  1  0.87500000  0.12500000  0.18750000  1
  Cl  Cl2481  1  0.87500000  0.12500000  0.43750000  1
  Cl  Cl2482  1  0.87500000  0.12500000  0.68750000  1
  Cl  Cl2483  1  0.87500000  0.12500000  0.93750000  1
  Cl  Cl2484  1  0.87500000  0.37500000  0.18750000  1
  Cl  Cl2485  1  0.87500000  0.37500000  0.43750000  1
  Cl  Cl2486  1  0.87500000  0.37500000  0.68750000  1
  Cl  Cl2487  1  0.87500000  0.37500000  0.93750000  1
  Cl  Cl2488  1  0.87500000  0.62500000  0.18750000  1
  Cl  Cl2489  1  0.87500000  0.62500000  0.43750000  1
  Cl  Cl2490  1  0.87500000  0.62500000  0.68750000  1
  Cl  Cl2491  1  0.87500000  0.62500000  0.93750000  1
  Cl  Cl2492  1  0.87500000  0.87500000  0.18750000  1
  Cl  Cl2493  1  0.87500000  0.87500000  0.43750000  1
  Cl  Cl2494  1  0.87500000  0.87500000  0.68750000  1
  Cl  Cl2495  1  0.87500000  0.87500000  0.93750000  1
  Cl  Cl2496  1  0.00000000  0.00000000  0.18750000  1
  Cl  Cl2497  1  0.00000000  0.00000000  0.43750000  1
  Cl  Cl2498  1  0.00000000  0.00000000  0.68750000  1
  Cl  Cl2499  1  0.00000000  0.00000000  0.93750000  1
  Cl  Cl2500  1  0.00000000  0.25000000  0.18750000  1
  Cl  Cl2501  1  0.00000000  0.25000000  0.43750000  1
  Cl  Cl2502  1  0.00000000  0.25000000  0.68750000  1
  Cl  Cl2503  1  0.00000000  0.25000000  0.93750000  1
  Cl  Cl2504  1  0.00000000  0.50000000  0.18750000  1
  Cl  Cl2505  1  0.00000000  0.50000000  0.43750000  1
  Cl  Cl2506  1  0.00000000  0.50000000  0.68750000  1
  Cl  Cl2507  1  0.00000000  0.50000000  0.93750000  1
  Cl  Cl2508  1  0.00000000  0.75000000  0.18750000  1
  Cl  Cl2509  1  0.00000000  0.75000000  0.43750000  1
  Cl  Cl2510  1  0.00000000  0.75000000  0.68750000  1
  Cl  Cl2511  1  0.00000000  0.75000000  0.93750000  1
  Cl  Cl2512  1  0.25000000  0.00000000  0.18750000  1
  Cl  Cl2513  1  0.25000000  0.00000000  0.43750000  1
  Cl  Cl2514  1  0.25000000  0.00000000  0.68750000  1
  Cl  Cl2515  1  0.25000000  0.00000000  0.93750000  1
  Cl  Cl2516  1  0.25000000  0.25000000  0.18750000  1
  Cl  Cl2517  1  0.25000000  0.25000000  0.43750000  1
  Cl  Cl2518  1  0.25000000  0.25000000  0.68750000  1
  Cl  Cl2519  1  0.25000000  0.25000000  0.93750000  1
  Cl  Cl2520  1  0.25000000  0.50000000  0.18750000  1
  Cl  Cl2521  1  0.25000000  0.50000000  0.43750000  1
  Cl  Cl2522  1  0.25000000  0.50000000  0.68750000  1
  Cl  Cl2523  1  0.25000000  0.50000000  0.93750000  1
  Cl  Cl2524  1  0.25000000  0.75000000  0.18750000  1
  Cl  Cl2525  1  0.25000000  0.75000000  0.43750000  1
  Cl  Cl2526  1  0.25000000  0.75000000  0.68750000  1
  Cl  Cl2527  1  0.25000000  0.75000000  0.93750000  1
  Cl  Cl2528  1  0.50000000  0.00000000  0.18750000  1
  Cl  Cl2529  1  0.50000000  0.00000000  0.43750000  1
  Cl  Cl2530  1  0.50000000  0.00000000  0.68750000  1
  Cl  Cl2531  1  0.50000000  0.00000000  0.93750000  1
  Cl  Cl2532  1  0.50000000  0.25000000  0.18750000  1
  Cl  Cl2533  1  0.50000000  0.25000000  0.43750000  1
  Cl  Cl2534  1  0.50000000  0.25000000  0.68750000  1
  Cl  Cl2535  1  0.50000000  0.25000000  0.93750000  1
  Cl  Cl2536  1  0.50000000  0.50000000  0.18750000  1
  Cl  Cl2537  1  0.50000000  0.50000000  0.43750000  1
  Cl  Cl2538  1  0.50000000  0.50000000  0.68750000  1
  Cl  Cl2539  1  0.50000000  0.50000000  0.93750000  1
  Cl  Cl2540  1  0.50000000  0.75000000  0.18750000  1
  Cl  Cl2541  1  0.50000000  0.75000000  0.43750000  1
  Cl  Cl2542  1  0.50000000  0.75000000  0.68750000  1
  Cl  Cl2543  1  0.50000000  0.75000000  0.93750000  1
  Cl  Cl2544  1  0.75000000  0.00000000  0.18750000  1
  Cl  Cl2545  1  0.75000000  0.00000000  0.43750000  1
  Cl  Cl2546  1  0.75000000  0.00000000  0.68750000  1
  Cl  Cl2547  1  0.75000000  0.00000000  0.93750000  1
  Cl  Cl2548  1  0.75000000  0.25000000  0.18750000  1
  Cl  Cl2549  1  0.75000000  0.25000000  0.43750000  1
  Cl  Cl2550  1  0.75000000  0.25000000  0.68750000  1
  Cl  Cl2551  1  0.75000000  0.25000000  0.93750000  1
  Cl  Cl2552  1  0.75000000  0.50000000  0.18750000  1
  Cl  Cl2553  1  0.75000000  0.50000000  0.43750000  1
  Cl  Cl2554  1  0.75000000  0.50000000  0.68750000  1
  Cl  Cl2555  1  0.75000000  0.50000000  0.93750000  1
  Cl  Cl2556  1  0.75000000  0.75000000  0.18750000  1
  Cl  Cl2557  1  0.75000000  0.75000000  0.43750000  1
  Cl  Cl2558  1  0.75000000  0.75000000  0.68750000  1
  Cl  Cl2559  1  0.75000000  0.75000000  0.93750000  1
  Cl  Cl2560  1  0.00000000  0.12500000  0.06250000  1
  Cl  Cl2561  1  0.00000000  0.12500000  0.31250000  1
  Cl  Cl2562  1  0.00000000  0.12500000  0.56250000  1
  Cl  Cl2563  1  0.00000000  0.12500000  0.81250000  1
  Cl  Cl2564  1  0.00000000  0.37500000  0.06250000  1
  Cl  Cl2565  1  0.00000000  0.37500000  0.31250000  1
  Cl  Cl2566  1  0.00000000  0.37500000  0.56250000  1
  Cl  Cl2567  1  0.00000000  0.37500000  0.81250000  1
  Cl  Cl2568  1  0.00000000  0.62500000  0.06250000  1
  Cl  Cl2569  1  0.00000000  0.62500000  0.31250000  1
  Cl  Cl2570  1  0.00000000  0.62500000  0.56250000  1
  Cl  Cl2571  1  0.00000000  0.62500000  0.81250000  1
  Cl  Cl2572  1  0.00000000  0.87500000  0.06250000  1
  Cl  Cl2573  1  0.00000000  0.87500000  0.31250000  1
  Cl  Cl2574  1  0.00000000  0.87500000  0.56250000  1
  Cl  Cl2575  1  0.00000000  0.87500000  0.81250000  1
  Cl  Cl2576  1  0.25000000  0.12500000  0.06250000  1
  Cl  Cl2577  1  0.25000000  0.12500000  0.31250000  1
  Cl  Cl2578  1  0.25000000  0.12500000  0.56250000  1
  Cl  Cl2579  1  0.25000000  0.12500000  0.81250000  1
  Cl  Cl2580  1  0.25000000  0.37500000  0.06250000  1
  Cl  Cl2581  1  0.25000000  0.37500000  0.31250000  1
  Cl  Cl2582  1  0.25000000  0.37500000  0.56250000  1
  Cl  Cl2583  1  0.25000000  0.37500000  0.81250000  1
  Cl  Cl2584  1  0.25000000  0.62500000  0.06250000  1
  Cl  Cl2585  1  0.25000000  0.62500000  0.31250000  1
  Cl  Cl2586  1  0.25000000  0.62500000  0.56250000  1
  Cl  Cl2587  1  0.25000000  0.62500000  0.81250000  1
  Cl  Cl2588  1  0.25000000  0.87500000  0.06250000  1
  Cl  Cl2589  1  0.25000000  0.87500000  0.31250000  1
  Cl  Cl2590  1  0.25000000  0.87500000  0.56250000  1
  Cl  Cl2591  1  0.25000000  0.87500000  0.81250000  1
  Cl  Cl2592  1  0.50000000  0.12500000  0.06250000  1
  Cl  Cl2593  1  0.50000000  0.12500000  0.31250000  1
  Cl  Cl2594  1  0.50000000  0.12500000  0.56250000  1
  Cl  Cl2595  1  0.50000000  0.12500000  0.81250000  1
  Cl  Cl2596  1  0.50000000  0.37500000  0.06250000  1
  Cl  Cl2597  1  0.50000000  0.37500000  0.31250000  1
  Cl  Cl2598  1  0.50000000  0.37500000  0.56250000  1
  Cl  Cl2599  1  0.50000000  0.37500000  0.81250000  1
  Cl  Cl2600  1  0.50000000  0.62500000  0.06250000  1
  Cl  Cl2601  1  0.50000000  0.62500000  0.31250000  1
  Cl  Cl2602  1  0.50000000  0.62500000  0.56250000  1
  Cl  Cl2603  1  0.50000000  0.62500000  0.81250000  1
  Cl  Cl2604  1  0.50000000  0.87500000  0.06250000  1
  Cl  Cl2605  1  0.50000000  0.87500000  0.31250000  1
  Cl  Cl2606  1  0.50000000  0.87500000  0.56250000  1
  Cl  Cl2607  1  0.50000000  0.87500000  0.81250000  1
  Cl  Cl2608  1  0.75000000  0.12500000  0.06250000  1
  Cl  Cl2609  1  0.75000000  0.12500000  0.31250000  1
  Cl  Cl2610  1  0.75000000  0.12500000  0.56250000  1
  Cl  Cl2611  1  0.75000000  0.12500000  0.81250000  1
  Cl  Cl2612  1  0.75000000  0.37500000  0.06250000  1
  Cl  Cl2613  1  0.75000000  0.37500000  0.31250000  1
  Cl  Cl2614  1  0.75000000  0.37500000  0.56250000  1
  Cl  Cl2615  1  0.75000000  0.37500000  0.81250000  1
  Cl  Cl2616  1  0.75000000  0.62500000  0.06250000  1
  Cl  Cl2617  1  0.75000000  0.62500000  0.31250000  1
  Cl  Cl2618  1  0.75000000  0.62500000  0.56250000  1
  Cl  Cl2619  1  0.75000000  0.62500000  0.81250000  1
  Cl  Cl2620  1  0.75000000  0.87500000  0.06250000  1
  Cl  Cl2621  1  0.75000000  0.87500000  0.31250000  1
  Cl  Cl2622  1  0.75000000  0.87500000  0.56250000  1
  Cl  Cl2623  1  0.75000000  0.87500000  0.81250000  1
  Cl  Cl2624  1  0.12500000  0.00000000  0.06250000  1
  Cl  Cl2625  1  0.12500000  0.00000000  0.31250000  1
  Cl  Cl2626  1  0.12500000  0.00000000  0.56250000  1
  Cl  Cl2627  1  0.12500000  0.00000000  0.81250000  1
  Cl  Cl2628  1  0.12500000  0.25000000  0.06250000  1
  Cl  Cl2629  1  0.12500000  0.25000000  0.31250000  1
  Cl  Cl2630  1  0.12500000  0.25000000  0.56250000  1
  Cl  Cl2631  1  0.12500000  0.25000000  0.81250000  1
  Cl  Cl2632  1  0.12500000  0.50000000  0.06250000  1
  Cl  Cl2633  1  0.12500000  0.50000000  0.31250000  1
  Cl  Cl2634  1  0.12500000  0.50000000  0.56250000  1
  Cl  Cl2635  1  0.12500000  0.50000000  0.81250000  1
  Cl  Cl2636  1  0.12500000  0.75000000  0.06250000  1
  Cl  Cl2637  1  0.12500000  0.75000000  0.31250000  1
  Cl  Cl2638  1  0.12500000  0.75000000  0.56250000  1
  Cl  Cl2639  1  0.12500000  0.75000000  0.81250000  1
  Cl  Cl2640  1  0.37500000  0.00000000  0.06250000  1
  Cl  Cl2641  1  0.37500000  0.00000000  0.31250000  1
  Cl  Cl2642  1  0.37500000  0.00000000  0.56250000  1
  Cl  Cl2643  1  0.37500000  0.00000000  0.81250000  1
  Cl  Cl2644  1  0.37500000  0.25000000  0.06250000  1
  Cl  Cl2645  1  0.37500000  0.25000000  0.31250000  1
  Cl  Cl2646  1  0.37500000  0.25000000  0.56250000  1
  Cl  Cl2647  1  0.37500000  0.25000000  0.81250000  1
  Cl  Cl2648  1  0.37500000  0.50000000  0.06250000  1
  Cl  Cl2649  1  0.37500000  0.50000000  0.31250000  1
  Cl  Cl2650  1  0.37500000  0.50000000  0.56250000  1
  Cl  Cl2651  1  0.37500000  0.50000000  0.81250000  1
  Cl  Cl2652  1  0.37500000  0.75000000  0.06250000  1
  Cl  Cl2653  1  0.37500000  0.75000000  0.31250000  1
  Cl  Cl2654  1  0.37500000  0.75000000  0.56250000  1
  Cl  Cl2655  1  0.37500000  0.75000000  0.81250000  1
  Cl  Cl2656  1  0.62500000  0.00000000  0.06250000  1
  Cl  Cl2657  1  0.62500000  0.00000000  0.31250000  1
  Cl  Cl2658  1  0.62500000  0.00000000  0.56250000  1
  Cl  Cl2659  1  0.62500000  0.00000000  0.81250000  1
  Cl  Cl2660  1  0.62500000  0.25000000  0.06250000  1
  Cl  Cl2661  1  0.62500000  0.25000000  0.31250000  1
  Cl  Cl2662  1  0.62500000  0.25000000  0.56250000  1
  Cl  Cl2663  1  0.62500000  0.25000000  0.81250000  1
  Cl  Cl2664  1  0.62500000  0.50000000  0.06250000  1
  Cl  Cl2665  1  0.62500000  0.50000000  0.31250000  1
  Cl  Cl2666  1  0.62500000  0.50000000  0.56250000  1
  Cl  Cl2667  1  0.62500000  0.50000000  0.81250000  1
  Cl  Cl2668  1  0.62500000  0.75000000  0.06250000  1
  Cl  Cl2669  1  0.62500000  0.75000000  0.31250000  1
  Cl  Cl2670  1  0.62500000  0.75000000  0.56250000  1
  Cl  Cl2671  1  0.62500000  0.75000000  0.81250000  1
  Cl  Cl2672  1  0.87500000  0.00000000  0.06250000  1
  Cl  Cl2673  1  0.87500000  0.00000000  0.31250000  1
  Cl  Cl2674  1  0.87500000  0.00000000  0.56250000  1
  Cl  Cl2675  1  0.87500000  0.00000000  0.81250000  1
  Cl  Cl2676  1  0.87500000  0.25000000  0.06250000  1
  Cl  Cl2677  1  0.87500000  0.25000000  0.31250000  1
  Cl  Cl2678  1  0.87500000  0.25000000  0.56250000  1
  Cl  Cl2679  1  0.87500000  0.25000000  0.81250000  1
  Cl  Cl2680  1  0.87500000  0.50000000  0.06250000  1
  Cl  Cl2681  1  0.87500000  0.50000000  0.31250000  1
  Cl  Cl2682  1  0.87500000  0.50000000  0.56250000  1
  Cl  Cl2683  1  0.87500000  0.50000000  0.81250000  1
  Cl  Cl2684  1  0.87500000  0.75000000  0.06250000  1
  Cl  Cl2685  1  0.87500000  0.75000000  0.31250000  1
  Cl  Cl2686  1  0.87500000  0.75000000  0.56250000  1
  Cl  Cl2687  1  0.87500000  0.75000000  0.81250000  1
  Cl  Cl2688  1  0.12500000  0.06250000  0.12500000  1
  Cl  Cl2689  1  0.12500000  0.06250000  0.37500000  1
  Cl  Cl2690  1  0.12500000  0.06250000  0.62500000  1
  Cl  Cl2691  1  0.12500000  0.06250000  0.87500000  1
  Cl  Cl2692  1  0.12500000  0.31250000  0.12500000  1
  Cl  Cl2693  1  0.12500000  0.31250000  0.37500000  1
  Cl  Cl2694  1  0.12500000  0.31250000  0.62500000  1
  Cl  Cl2695  1  0.12500000  0.31250000  0.87500000  1
  Cl  Cl2696  1  0.12500000  0.56250000  0.12500000  1
  Cl  Cl2697  1  0.12500000  0.56250000  0.37500000  1
  Cl  Cl2698  1  0.12500000  0.56250000  0.62500000  1
  Cl  Cl2699  1  0.12500000  0.56250000  0.87500000  1
  Cl  Cl2700  1  0.12500000  0.81250000  0.12500000  1
  Cl  Cl2701  1  0.12500000  0.81250000  0.37500000  1
  Cl  Cl2702  1  0.12500000  0.81250000  0.62500000  1
  Cl  Cl2703  1  0.12500000  0.81250000  0.87500000  1
  Cl  Cl2704  1  0.37500000  0.06250000  0.12500000  1
  Cl  Cl2705  1  0.37500000  0.06250000  0.37500000  1
  Cl  Cl2706  1  0.37500000  0.06250000  0.62500000  1
  Cl  Cl2707  1  0.37500000  0.06250000  0.87500000  1
  Cl  Cl2708  1  0.37500000  0.31250000  0.12500000  1
  Cl  Cl2709  1  0.37500000  0.31250000  0.37500000  1
  Cl  Cl2710  1  0.37500000  0.31250000  0.62500000  1
  Cl  Cl2711  1  0.37500000  0.31250000  0.87500000  1
  Cl  Cl2712  1  0.37500000  0.56250000  0.12500000  1
  Cl  Cl2713  1  0.37500000  0.56250000  0.37500000  1
  Cl  Cl2714  1  0.37500000  0.56250000  0.62500000  1
  Cl  Cl2715  1  0.37500000  0.56250000  0.87500000  1
  Cl  Cl2716  1  0.37500000  0.81250000  0.12500000  1
  Cl  Cl2717  1  0.37500000  0.81250000  0.37500000  1
  Cl  Cl2718  1  0.37500000  0.81250000  0.62500000  1
  Cl  Cl2719  1  0.37500000  0.81250000  0.87500000  1
  Cl  Cl2720  1  0.62500000  0.06250000  0.12500000  1
  Cl  Cl2721  1  0.62500000  0.06250000  0.37500000  1
  Cl  Cl2722  1  0.62500000  0.06250000  0.62500000  1
  Cl  Cl2723  1  0.62500000  0.06250000  0.87500000  1
  Cl  Cl2724  1  0.62500000  0.31250000  0.12500000  1
  Cl  Cl2725  1  0.62500000  0.31250000  0.37500000  1
  Cl  Cl2726  1  0.62500000  0.31250000  0.62500000  1
  Cl  Cl2727  1  0.62500000  0.31250000  0.87500000  1
  Cl  Cl2728  1  0.62500000  0.56250000  0.12500000  1
  Cl  Cl2729  1  0.62500000  0.56250000  0.37500000  1
  Cl  Cl2730  1  0.62500000  0.56250000  0.62500000  1
  Cl  Cl2731  1  0.62500000  0.56250000  0.87500000  1
  Cl  Cl2732  1  0.62500000  0.81250000  0.12500000  1
  Cl  Cl2733  1  0.62500000  0.81250000  0.37500000  1
  Cl  Cl2734  1  0.62500000  0.81250000  0.62500000  1
  Cl  Cl2735  1  0.62500000  0.81250000  0.87500000  1
  Cl  Cl2736  1  0.87500000  0.06250000  0.12500000  1
  Cl  Cl2737  1  0.87500000  0.06250000  0.37500000  1
  Cl  Cl2738  1  0.87500000  0.06250000  0.62500000  1
  Cl  Cl2739  1  0.87500000  0.06250000  0.87500000  1
  Cl  Cl2740  1  0.87500000  0.31250000  0.12500000  1
  Cl  Cl2741  1  0.87500000  0.31250000  0.37500000  1
  Cl  Cl2742  1  0.87500000  0.31250000  0.62500000  1
  Cl  Cl2743  1  0.87500000  0.31250000  0.87500000  1
  Cl  Cl2744  1  0.87500000  0.56250000  0.12500000  1
  Cl  Cl2745  1  0.87500000  0.56250000  0.37500000  1
  Cl  Cl2746  1  0.87500000  0.56250000  0.62500000  1
  Cl  Cl2747  1  0.87500000  0.56250000  0.87500000  1
  Cl  Cl2748  1  0.87500000  0.81250000  0.12500000  1
  Cl  Cl2749  1  0.87500000  0.81250000  0.37500000  1
  Cl  Cl2750  1  0.87500000  0.81250000  0.62500000  1
  Cl  Cl2751  1  0.87500000  0.81250000  0.87500000  1
  Cl  Cl2752  1  0.00000000  0.18750000  0.12500000  1
  Cl  Cl2753  1  0.00000000  0.18750000  0.37500000  1
  Cl  Cl2754  1  0.00000000  0.18750000  0.62500000  1
  Cl  Cl2755  1  0.00000000  0.18750000  0.87500000  1
  Cl  Cl2756  1  0.00000000  0.43750000  0.12500000  1
  Cl  Cl2757  1  0.00000000  0.43750000  0.37500000  1
  Cl  Cl2758  1  0.00000000  0.43750000  0.62500000  1
  Cl  Cl2759  1  0.00000000  0.43750000  0.87500000  1
  Cl  Cl2760  1  0.00000000  0.68750000  0.12500000  1
  Cl  Cl2761  1  0.00000000  0.68750000  0.37500000  1
  Cl  Cl2762  1  0.00000000  0.68750000  0.62500000  1
  Cl  Cl2763  1  0.00000000  0.68750000  0.87500000  1
  Cl  Cl2764  1  0.00000000  0.93750000  0.12500000  1
  Cl  Cl2765  1  0.00000000  0.93750000  0.37500000  1
  Cl  Cl2766  1  0.00000000  0.93750000  0.62500000  1
  Cl  Cl2767  1  0.00000000  0.93750000  0.87500000  1
  Cl  Cl2768  1  0.25000000  0.18750000  0.12500000  1
  Cl  Cl2769  1  0.25000000  0.18750000  0.37500000  1
  Cl  Cl2770  1  0.25000000  0.18750000  0.62500000  1
  Cl  Cl2771  1  0.25000000  0.18750000  0.87500000  1
  Cl  Cl2772  1  0.25000000  0.43750000  0.12500000  1
  Cl  Cl2773  1  0.25000000  0.43750000  0.37500000  1
  Cl  Cl2774  1  0.25000000  0.43750000  0.62500000  1
  Cl  Cl2775  1  0.25000000  0.43750000  0.87500000  1
  Cl  Cl2776  1  0.25000000  0.68750000  0.12500000  1
  Cl  Cl2777  1  0.25000000  0.68750000  0.37500000  1
  Cl  Cl2778  1  0.25000000  0.68750000  0.62500000  1
  Cl  Cl2779  1  0.25000000  0.68750000  0.87500000  1
  Cl  Cl2780  1  0.25000000  0.93750000  0.12500000  1
  Cl  Cl2781  1  0.25000000  0.93750000  0.37500000  1
  Cl  Cl2782  1  0.25000000  0.93750000  0.62500000  1
  Cl  Cl2783  1  0.25000000  0.93750000  0.87500000  1
  Cl  Cl2784  1  0.50000000  0.18750000  0.12500000  1
  Cl  Cl2785  1  0.50000000  0.18750000  0.37500000  1
  Cl  Cl2786  1  0.50000000  0.18750000  0.62500000  1
  Cl  Cl2787  1  0.50000000  0.18750000  0.87500000  1
  Cl  Cl2788  1  0.50000000  0.43750000  0.12500000  1
  Cl  Cl2789  1  0.50000000  0.43750000  0.37500000  1
  Cl  Cl2790  1  0.50000000  0.43750000  0.62500000  1
  Cl  Cl2791  1  0.50000000  0.43750000  0.87500000  1
  Cl  Cl2792  1  0.50000000  0.68750000  0.12500000  1
  Cl  Cl2793  1  0.50000000  0.68750000  0.37500000  1
  Cl  Cl2794  1  0.50000000  0.68750000  0.62500000  1
  Cl  Cl2795  1  0.50000000  0.68750000  0.87500000  1
  Cl  Cl2796  1  0.50000000  0.93750000  0.12500000  1
  Cl  Cl2797  1  0.50000000  0.93750000  0.37500000  1
  Cl  Cl2798  1  0.50000000  0.93750000  0.62500000  1
  Cl  Cl2799  1  0.50000000  0.93750000  0.87500000  1
  Cl  Cl2800  1  0.75000000  0.18750000  0.12500000  1
  Cl  Cl2801  1  0.75000000  0.18750000  0.37500000  1
  Cl  Cl2802  1  0.75000000  0.18750000  0.62500000  1
  Cl  Cl2803  1  0.75000000  0.18750000  0.87500000  1
  Cl  Cl2804  1  0.75000000  0.43750000  0.12500000  1
  Cl  Cl2805  1  0.75000000  0.43750000  0.37500000  1
  Cl  Cl2806  1  0.75000000  0.43750000  0.62500000  1
  Cl  Cl2807  1  0.75000000  0.43750000  0.87500000  1
  Cl  Cl2808  1  0.75000000  0.68750000  0.12500000  1
  Cl  Cl2809  1  0.75000000  0.68750000  0.37500000  1
  Cl  Cl2810  1  0.75000000  0.68750000  0.62500000  1
  Cl  Cl2811  1  0.75000000  0.68750000  0.87500000  1
  Cl  Cl2812  1  0.75000000  0.93750000  0.12500000  1
  Cl  Cl2813  1  0.75000000  0.93750000  0.37500000  1
  Cl  Cl2814  1  0.75000000  0.93750000  0.62500000  1
  Cl  Cl2815  1  0.75000000  0.93750000  0.87500000  1
  Cl  Cl2816  1  0.00000000  0.06250000  0.00000000  1
  Cl  Cl2817  1  0.00000000  0.06250000  0.25000000  1
  Cl  Cl2818  1  0.00000000  0.06250000  0.50000000  1
  Cl  Cl2819  1  0.00000000  0.06250000  0.75000000  1
  Cl  Cl2820  1  0.00000000  0.31250000  0.00000000  1
  Cl  Cl2821  1  0.00000000  0.31250000  0.25000000  1
  Cl  Cl2822  1  0.00000000  0.31250000  0.50000000  1
  Cl  Cl2823  1  0.00000000  0.31250000  0.75000000  1
  Cl  Cl2824  1  0.00000000  0.56250000  0.00000000  1
  Cl  Cl2825  1  0.00000000  0.56250000  0.25000000  1
  Cl  Cl2826  1  0.00000000  0.56250000  0.50000000  1
  Cl  Cl2827  1  0.00000000  0.56250000  0.75000000  1
  Cl  Cl2828  1  0.00000000  0.81250000  1.00000000  1
  Cl  Cl2829  1  0.00000000  0.81250000  0.25000000  1
  Cl  Cl2830  1  0.00000000  0.81250000  0.50000000  1
  Cl  Cl2831  1  0.00000000  0.81250000  0.75000000  1
  Cl  Cl2832  1  0.25000000  0.06250000  0.00000000  1
  Cl  Cl2833  1  0.25000000  0.06250000  0.25000000  1
  Cl  Cl2834  1  0.25000000  0.06250000  0.50000000  1
  Cl  Cl2835  1  0.25000000  0.06250000  0.75000000  1
  Cl  Cl2836  1  0.25000000  0.31250000  0.00000000  1
  Cl  Cl2837  1  0.25000000  0.31250000  0.25000000  1
  Cl  Cl2838  1  0.25000000  0.31250000  0.50000000  1
  Cl  Cl2839  1  0.25000000  0.31250000  0.75000000  1
  Cl  Cl2840  1  0.25000000  0.56250000  0.00000000  1
  Cl  Cl2841  1  0.25000000  0.56250000  0.25000000  1
  Cl  Cl2842  1  0.25000000  0.56250000  0.50000000  1
  Cl  Cl2843  1  0.25000000  0.56250000  0.75000000  1
  Cl  Cl2844  1  0.25000000  0.81250000  1.00000000  1
  Cl  Cl2845  1  0.25000000  0.81250000  0.25000000  1
  Cl  Cl2846  1  0.25000000  0.81250000  0.50000000  1
  Cl  Cl2847  1  0.25000000  0.81250000  0.75000000  1
  Cl  Cl2848  1  0.50000000  0.06250000  0.00000000  1
  Cl  Cl2849  1  0.50000000  0.06250000  0.25000000  1
  Cl  Cl2850  1  0.50000000  0.06250000  0.50000000  1
  Cl  Cl2851  1  0.50000000  0.06250000  0.75000000  1
  Cl  Cl2852  1  0.50000000  0.31250000  1.00000000  1
  Cl  Cl2853  1  0.50000000  0.31250000  0.25000000  1
  Cl  Cl2854  1  0.50000000  0.31250000  0.50000000  1
  Cl  Cl2855  1  0.50000000  0.31250000  0.75000000  1
  Cl  Cl2856  1  0.50000000  0.56250000  1.00000000  1
  Cl  Cl2857  1  0.50000000  0.56250000  0.25000000  1
  Cl  Cl2858  1  0.50000000  0.56250000  0.50000000  1
  Cl  Cl2859  1  0.50000000  0.56250000  0.75000000  1
  Cl  Cl2860  1  0.50000000  0.81250000  1.00000000  1
  Cl  Cl2861  1  0.50000000  0.81250000  0.25000000  1
  Cl  Cl2862  1  0.50000000  0.81250000  0.50000000  1
  Cl  Cl2863  1  0.50000000  0.81250000  0.75000000  1
  Cl  Cl2864  1  0.75000000  0.06250000  1.00000000  1
  Cl  Cl2865  1  0.75000000  0.06250000  0.25000000  1
  Cl  Cl2866  1  0.75000000  0.06250000  0.50000000  1
  Cl  Cl2867  1  0.75000000  0.06250000  0.75000000  1
  Cl  Cl2868  1  0.75000000  0.31250000  1.00000000  1
  Cl  Cl2869  1  0.75000000  0.31250000  0.25000000  1
  Cl  Cl2870  1  0.75000000  0.31250000  0.50000000  1
  Cl  Cl2871  1  0.75000000  0.31250000  0.75000000  1
  Cl  Cl2872  1  0.75000000  0.56250000  1.00000000  1
  Cl  Cl2873  1  0.75000000  0.56250000  0.25000000  1
  Cl  Cl2874  1  0.75000000  0.56250000  0.50000000  1
  Cl  Cl2875  1  0.75000000  0.56250000  0.75000000  1
  Cl  Cl2876  1  0.75000000  0.81250000  0.00000000  1
  Cl  Cl2877  1  0.75000000  0.81250000  0.25000000  1
  Cl  Cl2878  1  0.75000000  0.81250000  0.50000000  1
  Cl  Cl2879  1  0.75000000  0.81250000  0.75000000  1
  Cl  Cl2880  1  0.12500000  0.18750000  0.00000000  1
  Cl  Cl2881  1  0.12500000  0.18750000  0.25000000  1
  Cl  Cl2882  1  0.12500000  0.18750000  0.50000000  1
  Cl  Cl2883  1  0.12500000  0.18750000  0.75000000  1
  Cl  Cl2884  1  0.12500000  0.43750000  0.00000000  1
  Cl  Cl2885  1  0.12500000  0.43750000  0.25000000  1
  Cl  Cl2886  1  0.12500000  0.43750000  0.50000000  1
  Cl  Cl2887  1  0.12500000  0.43750000  0.75000000  1
  Cl  Cl2888  1  0.12500000  0.68750000  1.00000000  1
  Cl  Cl2889  1  0.12500000  0.68750000  0.25000000  1
  Cl  Cl2890  1  0.12500000  0.68750000  0.50000000  1
  Cl  Cl2891  1  0.12500000  0.68750000  0.75000000  1
  Cl  Cl2892  1  0.12500000  0.93750000  0.00000000  1
  Cl  Cl2893  1  0.12500000  0.93750000  0.25000000  1
  Cl  Cl2894  1  0.12500000  0.93750000  0.50000000  1
  Cl  Cl2895  1  0.12500000  0.93750000  0.75000000  1
  Cl  Cl2896  1  0.37500000  0.18750000  0.00000000  1
  Cl  Cl2897  1  0.37500000  0.18750000  0.25000000  1
  Cl  Cl2898  1  0.37500000  0.18750000  0.50000000  1
  Cl  Cl2899  1  0.37500000  0.18750000  0.75000000  1
  Cl  Cl2900  1  0.37500000  0.43750000  1.00000000  1
  Cl  Cl2901  1  0.37500000  0.43750000  0.25000000  1
  Cl  Cl2902  1  0.37500000  0.43750000  0.50000000  1
  Cl  Cl2903  1  0.37500000  0.43750000  0.75000000  1
  Cl  Cl2904  1  0.37500000  0.68750000  0.00000000  1
  Cl  Cl2905  1  0.37500000  0.68750000  0.25000000  1
  Cl  Cl2906  1  0.37500000  0.68750000  0.50000000  1
  Cl  Cl2907  1  0.37500000  0.68750000  0.75000000  1
  Cl  Cl2908  1  0.37500000  0.93750000  0.00000000  1
  Cl  Cl2909  1  0.37500000  0.93750000  0.25000000  1
  Cl  Cl2910  1  0.37500000  0.93750000  0.50000000  1
  Cl  Cl2911  1  0.37500000  0.93750000  0.75000000  1
  Cl  Cl2912  1  0.62500000  0.18750000  1.00000000  1
  Cl  Cl2913  1  0.62500000  0.18750000  0.25000000  1
  Cl  Cl2914  1  0.62500000  0.18750000  0.50000000  1
  Cl  Cl2915  1  0.62500000  0.18750000  0.75000000  1
  Cl  Cl2916  1  0.62500000  0.43750000  1.00000000  1
  Cl  Cl2917  1  0.62500000  0.43750000  0.25000000  1
  Cl  Cl2918  1  0.62500000  0.43750000  0.50000000  1
  Cl  Cl2919  1  0.62500000  0.43750000  0.75000000  1
  Cl  Cl2920  1  0.62500000  0.68750000  0.00000000  1
  Cl  Cl2921  1  0.62500000  0.68750000  0.25000000  1
  Cl  Cl2922  1  0.62500000  0.68750000  0.50000000  1
  Cl  Cl2923  1  0.62500000  0.68750000  0.75000000  1
  Cl  Cl2924  1  0.62500000  0.93750000  0.00000000  1
  Cl  Cl2925  1  0.62500000  0.93750000  0.25000000  1
  Cl  Cl2926  1  0.62500000  0.93750000  0.50000000  1
  Cl  Cl2927  1  0.62500000  0.93750000  0.75000000  1
  Cl  Cl2928  1  0.87500000  0.18750000  1.00000000  1
  Cl  Cl2929  1  0.87500000  0.18750000  0.25000000  1
  Cl  Cl2930  1  0.87500000  0.18750000  0.50000000  1
  Cl  Cl2931  1  0.87500000  0.18750000  0.75000000  1
  Cl  Cl2932  1  0.87500000  0.43750000  0.00000000  1
  Cl  Cl2933  1  0.87500000  0.43750000  0.25000000  1
  Cl  Cl2934  1  0.87500000  0.43750000  0.50000000  1
  Cl  Cl2935  1  0.87500000  0.43750000  0.75000000  1
  Cl  Cl2936  1  0.87500000  0.68750000  0.00000000  1
  Cl  Cl2937  1  0.87500000  0.68750000  0.25000000  1
  Cl  Cl2938  1  0.87500000  0.68750000  0.50000000  1
  Cl  Cl2939  1  0.87500000  0.68750000  0.75000000  1
  Cl  Cl2940  1  0.87500000  0.93750000  0.00000000  1
  Cl  Cl2941  1  0.87500000  0.93750000  0.25000000  1
  Cl  Cl2942  1  0.87500000  0.93750000  0.50000000  1
  Cl  Cl2943  1  0.87500000  0.93750000  0.75000000  1
  Cl  Cl2944  1  0.06250000  0.12500000  0.12500000  1
  Cl  Cl2945  1  0.06250000  0.12500000  0.37500000  1
  Cl  Cl2946  1  0.06250000  0.12500000  0.62500000  1
  Cl  Cl2947  1  0.06250000  0.12500000  0.87500000  1
  Cl  Cl2948  1  0.06250000  0.37500000  0.12500000  1
  Cl  Cl2949  1  0.06250000  0.37500000  0.37500000  1
  Cl  Cl2950  1  0.06250000  0.37500000  0.62500000  1
  Cl  Cl2951  1  0.06250000  0.37500000  0.87500000  1
  Cl  Cl2952  1  0.06250000  0.62500000  0.12500000  1
  Cl  Cl2953  1  0.06250000  0.62500000  0.37500000  1
  Cl  Cl2954  1  0.06250000  0.62500000  0.62500000  1
  Cl  Cl2955  1  0.06250000  0.62500000  0.87500000  1
  Cl  Cl2956  1  0.06250000  0.87500000  0.12500000  1
  Cl  Cl2957  1  0.06250000  0.87500000  0.37500000  1
  Cl  Cl2958  1  0.06250000  0.87500000  0.62500000  1
  Cl  Cl2959  1  0.06250000  0.87500000  0.87500000  1
  Cl  Cl2960  1  0.31250000  0.12500000  0.12500000  1
  Cl  Cl2961  1  0.31250000  0.12500000  0.37500000  1
  Cl  Cl2962  1  0.31250000  0.12500000  0.62500000  1
  Cl  Cl2963  1  0.31250000  0.12500000  0.87500000  1
  Cl  Cl2964  1  0.31250000  0.37500000  0.12500000  1
  Cl  Cl2965  1  0.31250000  0.37500000  0.37500000  1
  Cl  Cl2966  1  0.31250000  0.37500000  0.62500000  1
  Cl  Cl2967  1  0.31250000  0.37500000  0.87500000  1
  Cl  Cl2968  1  0.31250000  0.62500000  0.12500000  1
  Cl  Cl2969  1  0.31250000  0.62500000  0.37500000  1
  Cl  Cl2970  1  0.31250000  0.62500000  0.62500000  1
  Cl  Cl2971  1  0.31250000  0.62500000  0.87500000  1
  Cl  Cl2972  1  0.31250000  0.87500000  0.12500000  1
  Cl  Cl2973  1  0.31250000  0.87500000  0.37500000  1
  Cl  Cl2974  1  0.31250000  0.87500000  0.62500000  1
  Cl  Cl2975  1  0.31250000  0.87500000  0.87500000  1
  Cl  Cl2976  1  0.56250000  0.12500000  0.12500000  1
  Cl  Cl2977  1  0.56250000  0.12500000  0.37500000  1
  Cl  Cl2978  1  0.56250000  0.12500000  0.62500000  1
  Cl  Cl2979  1  0.56250000  0.12500000  0.87500000  1
  Cl  Cl2980  1  0.56250000  0.37500000  0.12500000  1
  Cl  Cl2981  1  0.56250000  0.37500000  0.37500000  1
  Cl  Cl2982  1  0.56250000  0.37500000  0.62500000  1
  Cl  Cl2983  1  0.56250000  0.37500000  0.87500000  1
  Cl  Cl2984  1  0.56250000  0.62500000  0.12500000  1
  Cl  Cl2985  1  0.56250000  0.62500000  0.37500000  1
  Cl  Cl2986  1  0.56250000  0.62500000  0.62500000  1
  Cl  Cl2987  1  0.56250000  0.62500000  0.87500000  1
  Cl  Cl2988  1  0.56250000  0.87500000  0.12500000  1
  Cl  Cl2989  1  0.56250000  0.87500000  0.37500000  1
  Cl  Cl2990  1  0.56250000  0.87500000  0.62500000  1
  Cl  Cl2991  1  0.56250000  0.87500000  0.87500000  1
  Cl  Cl2992  1  0.81250000  0.12500000  0.12500000  1
  Cl  Cl2993  1  0.81250000  0.12500000  0.37500000  1
  Cl  Cl2994  1  0.81250000  0.12500000  0.62500000  1
  Cl  Cl2995  1  0.81250000  0.12500000  0.87500000  1
  Cl  Cl2996  1  0.81250000  0.37500000  0.12500000  1
  Cl  Cl2997  1  0.81250000  0.37500000  0.37500000  1
  Cl  Cl2998  1  0.81250000  0.37500000  0.62500000  1
  Cl  Cl2999  1  0.81250000  0.37500000  0.87500000  1
  Cl  Cl3000  1  0.81250000  0.62500000  0.12500000  1
  Cl  Cl3001  1  0.81250000  0.62500000  0.37500000  1
  Cl  Cl3002  1  0.81250000  0.62500000  0.62500000  1
  Cl  Cl3003  1  0.81250000  0.62500000  0.87500000  1
  Cl  Cl3004  1  0.81250000  0.87500000  0.12500000  1
  Cl  Cl3005  1  0.81250000  0.87500000  0.37500000  1
  Cl  Cl3006  1  0.81250000  0.87500000  0.62500000  1
  Cl  Cl3007  1  0.81250000  0.87500000  0.87500000  1
  Cl  Cl3008  1  0.18750000  0.00000000  0.12500000  1
  Cl  Cl3009  1  0.18750000  0.00000000  0.37500000  1
  Cl  Cl3010  1  0.18750000  0.00000000  0.62500000  1
  Cl  Cl3011  1  0.18750000  0.00000000  0.87500000  1
  Cl  Cl3012  1  0.18750000  0.25000000  0.12500000  1
  Cl  Cl3013  1  0.18750000  0.25000000  0.37500000  1
  Cl  Cl3014  1  0.18750000  0.25000000  0.62500000  1
  Cl  Cl3015  1  0.18750000  0.25000000  0.87500000  1
  Cl  Cl3016  1  0.18750000  0.50000000  0.12500000  1
  Cl  Cl3017  1  0.18750000  0.50000000  0.37500000  1
  Cl  Cl3018  1  0.18750000  0.50000000  0.62500000  1
  Cl  Cl3019  1  0.18750000  0.50000000  0.87500000  1
  Cl  Cl3020  1  0.18750000  0.75000000  0.12500000  1
  Cl  Cl3021  1  0.18750000  0.75000000  0.37500000  1
  Cl  Cl3022  1  0.18750000  0.75000000  0.62500000  1
  Cl  Cl3023  1  0.18750000  0.75000000  0.87500000  1
  Cl  Cl3024  1  0.43750000  0.00000000  0.12500000  1
  Cl  Cl3025  1  0.43750000  0.00000000  0.37500000  1
  Cl  Cl3026  1  0.43750000  0.00000000  0.62500000  1
  Cl  Cl3027  1  0.43750000  0.00000000  0.87500000  1
  Cl  Cl3028  1  0.43750000  0.25000000  0.12500000  1
  Cl  Cl3029  1  0.43750000  0.25000000  0.37500000  1
  Cl  Cl3030  1  0.43750000  0.25000000  0.62500000  1
  Cl  Cl3031  1  0.43750000  0.25000000  0.87500000  1
  Cl  Cl3032  1  0.43750000  0.50000000  0.12500000  1
  Cl  Cl3033  1  0.43750000  0.50000000  0.37500000  1
  Cl  Cl3034  1  0.43750000  0.50000000  0.62500000  1
  Cl  Cl3035  1  0.43750000  0.50000000  0.87500000  1
  Cl  Cl3036  1  0.43750000  0.75000000  0.12500000  1
  Cl  Cl3037  1  0.43750000  0.75000000  0.37500000  1
  Cl  Cl3038  1  0.43750000  0.75000000  0.62500000  1
  Cl  Cl3039  1  0.43750000  0.75000000  0.87500000  1
  Cl  Cl3040  1  0.68750000  0.00000000  0.12500000  1
  Cl  Cl3041  1  0.68750000  0.00000000  0.37500000  1
  Cl  Cl3042  1  0.68750000  0.00000000  0.62500000  1
  Cl  Cl3043  1  0.68750000  0.00000000  0.87500000  1
  Cl  Cl3044  1  0.68750000  0.25000000  0.12500000  1
  Cl  Cl3045  1  0.68750000  0.25000000  0.37500000  1
  Cl  Cl3046  1  0.68750000  0.25000000  0.62500000  1
  Cl  Cl3047  1  0.68750000  0.25000000  0.87500000  1
  Cl  Cl3048  1  0.68750000  0.50000000  0.12500000  1
  Cl  Cl3049  1  0.68750000  0.50000000  0.37500000  1
  Cl  Cl3050  1  0.68750000  0.50000000  0.62500000  1
  Cl  Cl3051  1  0.68750000  0.50000000  0.87500000  1
  Cl  Cl3052  1  0.68750000  0.75000000  0.12500000  1
  Cl  Cl3053  1  0.68750000  0.75000000  0.37500000  1
  Cl  Cl3054  1  0.68750000  0.75000000  0.62500000  1
  Cl  Cl3055  1  0.68750000  0.75000000  0.87500000  1
  Cl  Cl3056  1  0.93750000  0.00000000  0.12500000  1
  Cl  Cl3057  1  0.93750000  0.00000000  0.37500000  1
  Cl  Cl3058  1  0.93750000  0.00000000  0.62500000  1
  Cl  Cl3059  1  0.93750000  0.00000000  0.87500000  1
  Cl  Cl3060  1  0.93750000  0.25000000  0.12500000  1
  Cl  Cl3061  1  0.93750000  0.25000000  0.37500000  1
  Cl  Cl3062  1  0.93750000  0.25000000  0.62500000  1
  Cl  Cl3063  1  0.93750000  0.25000000  0.87500000  1
  Cl  Cl3064  1  0.93750000  0.50000000  0.12500000  1
  Cl  Cl3065  1  0.93750000  0.50000000  0.37500000  1
  Cl  Cl3066  1  0.93750000  0.50000000  0.62500000  1
  Cl  Cl3067  1  0.93750000  0.50000000  0.87500000  1
  Cl  Cl3068  1  0.93750000  0.75000000  0.12500000  1
  Cl  Cl3069  1  0.93750000  0.75000000  0.37500000  1
  Cl  Cl3070  1  0.93750000  0.75000000  0.62500000  1
  Cl  Cl3071  1  0.93750000  0.75000000  0.87500000  1
  Cl  Cl3072  1  0.18750000  0.12500000  0.00000000  1
  Cl  Cl3073  1  0.18750000  0.12500000  0.25000000  1
  Cl  Cl3074  1  0.18750000  0.12500000  0.50000000  1
  Cl  Cl3075  1  0.18750000  0.12500000  0.75000000  1
  Cl  Cl3076  1  0.18750000  0.37500000  0.00000000  1
  Cl  Cl3077  1  0.18750000  0.37500000  0.25000000  1
  Cl  Cl3078  1  0.18750000  0.37500000  0.50000000  1
  Cl  Cl3079  1  0.18750000  0.37500000  0.75000000  1
  Cl  Cl3080  1  0.18750000  0.62500000  1.00000000  1
  Cl  Cl3081  1  0.18750000  0.62500000  0.25000000  1
  Cl  Cl3082  1  0.18750000  0.62500000  0.50000000  1
  Cl  Cl3083  1  0.18750000  0.62500000  0.75000000  1
  Cl  Cl3084  1  0.18750000  0.87500000  1.00000000  1
  Cl  Cl3085  1  0.18750000  0.87500000  0.25000000  1
  Cl  Cl3086  1  0.18750000  0.87500000  0.50000000  1
  Cl  Cl3087  1  0.18750000  0.87500000  0.75000000  1
  Cl  Cl3088  1  0.43750000  0.12500000  0.00000000  1
  Cl  Cl3089  1  0.43750000  0.12500000  0.25000000  1
  Cl  Cl3090  1  0.43750000  0.12500000  0.50000000  1
  Cl  Cl3091  1  0.43750000  0.12500000  0.75000000  1
  Cl  Cl3092  1  0.43750000  0.37500000  1.00000000  1
  Cl  Cl3093  1  0.43750000  0.37500000  0.25000000  1
  Cl  Cl3094  1  0.43750000  0.37500000  0.50000000  1
  Cl  Cl3095  1  0.43750000  0.37500000  0.75000000  1
  Cl  Cl3096  1  0.43750000  0.62500000  0.00000000  1
  Cl  Cl3097  1  0.43750000  0.62500000  0.25000000  1
  Cl  Cl3098  1  0.43750000  0.62500000  0.50000000  1
  Cl  Cl3099  1  0.43750000  0.62500000  0.75000000  1
  Cl  Cl3100  1  0.43750000  0.87500000  0.00000000  1
  Cl  Cl3101  1  0.43750000  0.87500000  0.25000000  1
  Cl  Cl3102  1  0.43750000  0.87500000  0.50000000  1
  Cl  Cl3103  1  0.43750000  0.87500000  0.75000000  1
  Cl  Cl3104  1  0.68750000  0.12500000  1.00000000  1
  Cl  Cl3105  1  0.68750000  0.12500000  0.25000000  1
  Cl  Cl3106  1  0.68750000  0.12500000  0.50000000  1
  Cl  Cl3107  1  0.68750000  0.12500000  0.75000000  1
  Cl  Cl3108  1  0.68750000  0.37500000  1.00000000  1
  Cl  Cl3109  1  0.68750000  0.37500000  0.25000000  1
  Cl  Cl3110  1  0.68750000  0.37500000  0.50000000  1
  Cl  Cl3111  1  0.68750000  0.37500000  0.75000000  1
  Cl  Cl3112  1  0.68750000  0.62500000  0.00000000  1
  Cl  Cl3113  1  0.68750000  0.62500000  0.25000000  1
  Cl  Cl3114  1  0.68750000  0.62500000  0.50000000  1
  Cl  Cl3115  1  0.68750000  0.62500000  0.75000000  1
  Cl  Cl3116  1  0.68750000  0.87500000  0.00000000  1
  Cl  Cl3117  1  0.68750000  0.87500000  0.25000000  1
  Cl  Cl3118  1  0.68750000  0.87500000  0.50000000  1
  Cl  Cl3119  1  0.68750000  0.87500000  0.75000000  1
  Cl  Cl3120  1  0.93750000  0.12500000  0.00000000  1
  Cl  Cl3121  1  0.93750000  0.12500000  0.25000000  1
  Cl  Cl3122  1  0.93750000  0.12500000  0.50000000  1
  Cl  Cl3123  1  0.93750000  0.12500000  0.75000000  1
  Cl  Cl3124  1  0.93750000  0.37500000  0.00000000  1
  Cl  Cl3125  1  0.93750000  0.37500000  0.25000000  1
  Cl  Cl3126  1  0.93750000  0.37500000  0.50000000  1
  Cl  Cl3127  1  0.93750000  0.37500000  0.75000000  1
  Cl  Cl3128  1  0.93750000  0.62500000  0.00000000  1
  Cl  Cl3129  1  0.93750000  0.62500000  0.25000000  1
  Cl  Cl3130  1  0.93750000  0.62500000  0.50000000  1
  Cl  Cl3131  1  0.93750000  0.62500000  0.75000000  1
  Cl  Cl3132  1  0.93750000  0.87500000  0.00000000  1
  Cl  Cl3133  1  0.93750000  0.87500000  0.25000000  1
  Cl  Cl3134  1  0.93750000  0.87500000  0.50000000  1
  Cl  Cl3135  1  0.93750000  0.87500000  0.75000000  1
  Cl  Cl3136  1  0.06250000  0.00000000  0.00000000  1
  Cl  Cl3137  1  0.06250000  0.00000000  0.25000000  1
  Cl  Cl3138  1  0.06250000  0.00000000  0.50000000  1
  Cl  Cl3139  1  0.06250000  0.00000000  0.75000000  1
  Cl  Cl3140  1  0.06250000  0.25000000  0.00000000  1
  Cl  Cl3141  1  0.06250000  0.25000000  0.25000000  1
  Cl  Cl3142  1  0.06250000  0.25000000  0.50000000  1
  Cl  Cl3143  1  0.06250000  0.25000000  0.75000000  1
  Cl  Cl3144  1  0.06250000  0.50000000  0.00000000  1
  Cl  Cl3145  1  0.06250000  0.50000000  0.25000000  1
  Cl  Cl3146  1  0.06250000  0.50000000  0.50000000  1
  Cl  Cl3147  1  0.06250000  0.50000000  0.75000000  1
  Cl  Cl3148  1  0.06250000  0.75000000  1.00000000  1
  Cl  Cl3149  1  0.06250000  0.75000000  0.25000000  1
  Cl  Cl3150  1  0.06250000  0.75000000  0.50000000  1
  Cl  Cl3151  1  0.06250000  0.75000000  0.75000000  1
  Cl  Cl3152  1  0.31250000  0.00000000  0.00000000  1
  Cl  Cl3153  1  0.31250000  0.00000000  0.25000000  1
  Cl  Cl3154  1  0.31250000  0.00000000  0.50000000  1
  Cl  Cl3155  1  0.31250000  0.00000000  0.75000000  1
  Cl  Cl3156  1  0.31250000  0.25000000  0.00000000  1
  Cl  Cl3157  1  0.31250000  0.25000000  0.25000000  1
  Cl  Cl3158  1  0.31250000  0.25000000  0.50000000  1
  Cl  Cl3159  1  0.31250000  0.25000000  0.75000000  1
  Cl  Cl3160  1  0.31250000  0.50000000  0.00000000  1
  Cl  Cl3161  1  0.31250000  0.50000000  0.25000000  1
  Cl  Cl3162  1  0.31250000  0.50000000  0.50000000  1
  Cl  Cl3163  1  0.31250000  0.50000000  0.75000000  1
  Cl  Cl3164  1  0.31250000  0.75000000  1.00000000  1
  Cl  Cl3165  1  0.31250000  0.75000000  0.25000000  1
  Cl  Cl3166  1  0.31250000  0.75000000  0.50000000  1
  Cl  Cl3167  1  0.31250000  0.75000000  0.75000000  1
  Cl  Cl3168  1  0.56250000  0.00000000  0.00000000  1
  Cl  Cl3169  1  0.56250000  0.00000000  0.25000000  1
  Cl  Cl3170  1  0.56250000  0.00000000  0.50000000  1
  Cl  Cl3171  1  0.56250000  0.00000000  0.75000000  1
  Cl  Cl3172  1  0.56250000  0.25000000  1.00000000  1
  Cl  Cl3173  1  0.56250000  0.25000000  0.25000000  1
  Cl  Cl3174  1  0.56250000  0.25000000  0.50000000  1
  Cl  Cl3175  1  0.56250000  0.25000000  0.75000000  1
  Cl  Cl3176  1  0.56250000  0.50000000  1.00000000  1
  Cl  Cl3177  1  0.56250000  0.50000000  0.25000000  1
  Cl  Cl3178  1  0.56250000  0.50000000  0.50000000  1
  Cl  Cl3179  1  0.56250000  0.50000000  0.75000000  1
  Cl  Cl3180  1  0.56250000  0.75000000  0.00000000  1
  Cl  Cl3181  1  0.56250000  0.75000000  0.25000000  1
  Cl  Cl3182  1  0.56250000  0.75000000  0.50000000  1
  Cl  Cl3183  1  0.56250000  0.75000000  0.75000000  1
  Cl  Cl3184  1  0.81250000  0.00000000  1.00000000  1
  Cl  Cl3185  1  0.81250000  0.00000000  0.25000000  1
  Cl  Cl3186  1  0.81250000  0.00000000  0.50000000  1
  Cl  Cl3187  1  0.81250000  0.00000000  0.75000000  1
  Cl  Cl3188  1  0.81250000  0.25000000  1.00000000  1
  Cl  Cl3189  1  0.81250000  0.25000000  0.25000000  1
  Cl  Cl3190  1  0.81250000  0.25000000  0.50000000  1
  Cl  Cl3191  1  0.81250000  0.25000000  0.75000000  1
  Cl  Cl3192  1  0.81250000  0.50000000  1.00000000  1
  Cl  Cl3193  1  0.81250000  0.50000000  0.25000000  1
  Cl  Cl3194  1  0.81250000  0.50000000  0.50000000  1
  Cl  Cl3195  1  0.81250000  0.50000000  0.75000000  1
  Cl  Cl3196  1  0.81250000  0.75000000  0.00000000  1
  Cl  Cl3197  1  0.81250000  0.75000000  0.25000000  1
  Cl  Cl3198  1  0.81250000  0.75000000  0.50000000  1
  Cl  Cl3199  1  0.81250000  0.75000000  0.75000000  1
  Cl  Cl3200  1  0.06250000  0.06250000  0.06250000  1
  Cl  Cl3201  1  0.06250000  0.06250000  0.31250000  1
  Cl  Cl3202  1  0.06250000  0.06250000  0.56250000  1
  Cl  Cl3203  1  0.06250000  0.06250000  0.81250000  1
  Cl  Cl3204  1  0.06250000  0.31250000  0.06250000  1
  Cl  Cl3205  1  0.06250000  0.31250000  0.31250000  1
  Cl  Cl3206  1  0.06250000  0.31250000  0.56250000  1
  Cl  Cl3207  1  0.06250000  0.31250000  0.81250000  1
  Cl  Cl3208  1  0.06250000  0.56250000  0.06250000  1
  Cl  Cl3209  1  0.06250000  0.56250000  0.31250000  1
  Cl  Cl3210  1  0.06250000  0.56250000  0.56250000  1
  Cl  Cl3211  1  0.06250000  0.56250000  0.81250000  1
  Cl  Cl3212  1  0.06250000  0.81250000  0.06250000  1
  Cl  Cl3213  1  0.06250000  0.81250000  0.31250000  1
  Cl  Cl3214  1  0.06250000  0.81250000  0.56250000  1
  Cl  Cl3215  1  0.06250000  0.81250000  0.81250000  1
  Cl  Cl3216  1  0.31250000  0.06250000  0.06250000  1
  Cl  Cl3217  1  0.31250000  0.06250000  0.31250000  1
  Cl  Cl3218  1  0.31250000  0.06250000  0.56250000  1
  Cl  Cl3219  1  0.31250000  0.06250000  0.81250000  1
  Cl  Cl3220  1  0.31250000  0.31250000  0.06250000  1
  Cl  Cl3221  1  0.31250000  0.31250000  0.31250000  1
  Cl  Cl3222  1  0.31250000  0.31250000  0.56250000  1
  Cl  Cl3223  1  0.31250000  0.31250000  0.81250000  1
  Cl  Cl3224  1  0.31250000  0.56250000  0.06250000  1
  Cl  Cl3225  1  0.31250000  0.56250000  0.31250000  1
  Cl  Cl3226  1  0.31250000  0.56250000  0.56250000  1
  Cl  Cl3227  1  0.31250000  0.56250000  0.81250000  1
  Cl  Cl3228  1  0.31250000  0.81250000  0.06250000  1
  Cl  Cl3229  1  0.31250000  0.81250000  0.31250000  1
  Cl  Cl3230  1  0.31250000  0.81250000  0.56250000  1
  Cl  Cl3231  1  0.31250000  0.81250000  0.81250000  1
  Cl  Cl3232  1  0.56250000  0.06250000  0.06250000  1
  Cl  Cl3233  1  0.56250000  0.06250000  0.31250000  1
  Cl  Cl3234  1  0.56250000  0.06250000  0.56250000  1
  Cl  Cl3235  1  0.56250000  0.06250000  0.81250000  1
  Cl  Cl3236  1  0.56250000  0.31250000  0.06250000  1
  Cl  Cl3237  1  0.56250000  0.31250000  0.31250000  1
  Cl  Cl3238  1  0.56250000  0.31250000  0.56250000  1
  Cl  Cl3239  1  0.56250000  0.31250000  0.81250000  1
  Cl  Cl3240  1  0.56250000  0.56250000  0.06250000  1
  Cl  Cl3241  1  0.56250000  0.56250000  0.31250000  1
  Cl  Cl3242  1  0.56250000  0.56250000  0.56250000  1
  Cl  Cl3243  1  0.56250000  0.56250000  0.81250000  1
  Cl  Cl3244  1  0.56250000  0.81250000  0.06250000  1
  Cl  Cl3245  1  0.56250000  0.81250000  0.31250000  1
  Cl  Cl3246  1  0.56250000  0.81250000  0.56250000  1
  Cl  Cl3247  1  0.56250000  0.81250000  0.81250000  1
  Cl  Cl3248  1  0.81250000  0.06250000  0.06250000  1
  Cl  Cl3249  1  0.81250000  0.06250000  0.31250000  1
  Cl  Cl3250  1  0.81250000  0.06250000  0.56250000  1
  Cl  Cl3251  1  0.81250000  0.06250000  0.81250000  1
  Cl  Cl3252  1  0.81250000  0.31250000  0.06250000  1
  Cl  Cl3253  1  0.81250000  0.31250000  0.31250000  1
  Cl  Cl3254  1  0.81250000  0.31250000  0.56250000  1
  Cl  Cl3255  1  0.81250000  0.31250000  0.81250000  1
  Cl  Cl3256  1  0.81250000  0.56250000  0.06250000  1
  Cl  Cl3257  1  0.81250000  0.56250000  0.31250000  1
  Cl  Cl3258  1  0.81250000  0.56250000  0.56250000  1
  Cl  Cl3259  1  0.81250000  0.56250000  0.81250000  1
  Cl  Cl3260  1  0.81250000  0.81250000  0.06250000  1
  Cl  Cl3261  1  0.81250000  0.81250000  0.31250000  1
  Cl  Cl3262  1  0.81250000  0.81250000  0.56250000  1
  Cl  Cl3263  1  0.81250000  0.81250000  0.81250000  1
  Cl  Cl3264  1  0.18750000  0.18750000  0.06250000  1
  Cl  Cl3265  1  0.18750000  0.18750000  0.31250000  1
  Cl  Cl3266  1  0.18750000  0.18750000  0.56250000  1
  Cl  Cl3267  1  0.18750000  0.18750000  0.81250000  1
  Cl  Cl3268  1  0.18750000  0.43750000  0.06250000  1
  Cl  Cl3269  1  0.18750000  0.43750000  0.31250000  1
  Cl  Cl3270  1  0.18750000  0.43750000  0.56250000  1
  Cl  Cl3271  1  0.18750000  0.43750000  0.81250000  1
  Cl  Cl3272  1  0.18750000  0.68750000  0.06250000  1
  Cl  Cl3273  1  0.18750000  0.68750000  0.31250000  1
  Cl  Cl3274  1  0.18750000  0.68750000  0.56250000  1
  Cl  Cl3275  1  0.18750000  0.68750000  0.81250000  1
  Cl  Cl3276  1  0.18750000  0.93750000  0.06250000  1
  Cl  Cl3277  1  0.18750000  0.93750000  0.31250000  1
  Cl  Cl3278  1  0.18750000  0.93750000  0.56250000  1
  Cl  Cl3279  1  0.18750000  0.93750000  0.81250000  1
  Cl  Cl3280  1  0.43750000  0.18750000  0.06250000  1
  Cl  Cl3281  1  0.43750000  0.18750000  0.31250000  1
  Cl  Cl3282  1  0.43750000  0.18750000  0.56250000  1
  Cl  Cl3283  1  0.43750000  0.18750000  0.81250000  1
  Cl  Cl3284  1  0.43750000  0.43750000  0.06250000  1
  Cl  Cl3285  1  0.43750000  0.43750000  0.31250000  1
  Cl  Cl3286  1  0.43750000  0.43750000  0.56250000  1
  Cl  Cl3287  1  0.43750000  0.43750000  0.81250000  1
  Cl  Cl3288  1  0.43750000  0.68750000  0.06250000  1
  Cl  Cl3289  1  0.43750000  0.68750000  0.31250000  1
  Cl  Cl3290  1  0.43750000  0.68750000  0.56250000  1
  Cl  Cl3291  1  0.43750000  0.68750000  0.81250000  1
  Cl  Cl3292  1  0.43750000  0.93750000  0.06250000  1
  Cl  Cl3293  1  0.43750000  0.93750000  0.31250000  1
  Cl  Cl3294  1  0.43750000  0.93750000  0.56250000  1
  Cl  Cl3295  1  0.43750000  0.93750000  0.81250000  1
  Cl  Cl3296  1  0.68750000  0.18750000  0.06250000  1
  Cl  Cl3297  1  0.68750000  0.18750000  0.31250000  1
  Cl  Cl3298  1  0.68750000  0.18750000  0.56250000  1
  Cl  Cl3299  1  0.68750000  0.18750000  0.81250000  1
  Cl  Cl3300  1  0.68750000  0.43750000  0.06250000  1
  Cl  Cl3301  1  0.68750000  0.43750000  0.31250000  1
  Cl  Cl3302  1  0.68750000  0.43750000  0.56250000  1
  Cl  Cl3303  1  0.68750000  0.43750000  0.81250000  1
  Cl  Cl3304  1  0.68750000  0.68750000  0.06250000  1
  Cl  Cl3305  1  0.68750000  0.68750000  0.31250000  1
  Cl  Cl3306  1  0.68750000  0.68750000  0.56250000  1
  Cl  Cl3307  1  0.68750000  0.68750000  0.81250000  1
  Cl  Cl3308  1  0.68750000  0.93750000  0.06250000  1
  Cl  Cl3309  1  0.68750000  0.93750000  0.31250000  1
  Cl  Cl3310  1  0.68750000  0.93750000  0.56250000  1
  Cl  Cl3311  1  0.68750000  0.93750000  0.81250000  1
  Cl  Cl3312  1  0.93750000  0.18750000  0.06250000  1
  Cl  Cl3313  1  0.93750000  0.18750000  0.31250000  1
  Cl  Cl3314  1  0.93750000  0.18750000  0.56250000  1
  Cl  Cl3315  1  0.93750000  0.18750000  0.81250000  1
  Cl  Cl3316  1  0.93750000  0.43750000  0.06250000  1
  Cl  Cl3317  1  0.93750000  0.43750000  0.31250000  1
  Cl  Cl3318  1  0.93750000  0.43750000  0.56250000  1
  Cl  Cl3319  1  0.93750000  0.43750000  0.81250000  1
  Cl  Cl3320  1  0.93750000  0.68750000  0.06250000  1
  Cl  Cl3321  1  0.93750000  0.68750000  0.31250000  1
  Cl  Cl3322  1  0.93750000  0.68750000  0.56250000  1
  Cl  Cl3323  1  0.93750000  0.68750000  0.81250000  1
  Cl  Cl3324  1  0.93750000  0.93750000  0.06250000  1
  Cl  Cl3325  1  0.93750000  0.93750000  0.31250000  1
  Cl  Cl3326  1  0.93750000  0.93750000  0.56250000  1
  Cl  Cl3327  1  0.93750000  0.93750000  0.81250000  1
  Cl  Cl3328  1  0.18750000  0.06250000  0.18750000  1
  Cl  Cl3329  1  0.18750000  0.06250000  0.43750000  1
  Cl  Cl3330  1  0.18750000  0.06250000  0.68750000  1
  Cl  Cl3331  1  0.18750000  0.06250000  0.93750000  1
  Cl  Cl3332  1  0.18750000  0.31250000  0.18750000  1
  Cl  Cl3333  1  0.18750000  0.31250000  0.43750000  1
  Cl  Cl3334  1  0.18750000  0.31250000  0.68750000  1
  Cl  Cl3335  1  0.18750000  0.31250000  0.93750000  1
  Cl  Cl3336  1  0.18750000  0.56250000  0.18750000  1
  Cl  Cl3337  1  0.18750000  0.56250000  0.43750000  1
  Cl  Cl3338  1  0.18750000  0.56250000  0.68750000  1
  Cl  Cl3339  1  0.18750000  0.56250000  0.93750000  1
  Cl  Cl3340  1  0.18750000  0.81250000  0.18750000  1
  Cl  Cl3341  1  0.18750000  0.81250000  0.43750000  1
  Cl  Cl3342  1  0.18750000  0.81250000  0.68750000  1
  Cl  Cl3343  1  0.18750000  0.81250000  0.93750000  1
  Cl  Cl3344  1  0.43750000  0.06250000  0.18750000  1
  Cl  Cl3345  1  0.43750000  0.06250000  0.43750000  1
  Cl  Cl3346  1  0.43750000  0.06250000  0.68750000  1
  Cl  Cl3347  1  0.43750000  0.06250000  0.93750000  1
  Cl  Cl3348  1  0.43750000  0.31250000  0.18750000  1
  Cl  Cl3349  1  0.43750000  0.31250000  0.43750000  1
  Cl  Cl3350  1  0.43750000  0.31250000  0.68750000  1
  Cl  Cl3351  1  0.43750000  0.31250000  0.93750000  1
  Cl  Cl3352  1  0.43750000  0.56250000  0.18750000  1
  Cl  Cl3353  1  0.43750000  0.56250000  0.43750000  1
  Cl  Cl3354  1  0.43750000  0.56250000  0.68750000  1
  Cl  Cl3355  1  0.43750000  0.56250000  0.93750000  1
  Cl  Cl3356  1  0.43750000  0.81250000  0.18750000  1
  Cl  Cl3357  1  0.43750000  0.81250000  0.43750000  1
  Cl  Cl3358  1  0.43750000  0.81250000  0.68750000  1
  Cl  Cl3359  1  0.43750000  0.81250000  0.93750000  1
  Cl  Cl3360  1  0.68750000  0.06250000  0.18750000  1
  Cl  Cl3361  1  0.68750000  0.06250000  0.43750000  1
  Cl  Cl3362  1  0.68750000  0.06250000  0.68750000  1
  Cl  Cl3363  1  0.68750000  0.06250000  0.93750000  1
  Cl  Cl3364  1  0.68750000  0.31250000  0.18750000  1
  Cl  Cl3365  1  0.68750000  0.31250000  0.43750000  1
  Cl  Cl3366  1  0.68750000  0.31250000  0.68750000  1
  Cl  Cl3367  1  0.68750000  0.31250000  0.93750000  1
  Cl  Cl3368  1  0.68750000  0.56250000  0.18750000  1
  Cl  Cl3369  1  0.68750000  0.56250000  0.43750000  1
  Cl  Cl3370  1  0.68750000  0.56250000  0.68750000  1
  Cl  Cl3371  1  0.68750000  0.56250000  0.93750000  1
  Cl  Cl3372  1  0.68750000  0.81250000  0.18750000  1
  Cl  Cl3373  1  0.68750000  0.81250000  0.43750000  1
  Cl  Cl3374  1  0.68750000  0.81250000  0.68750000  1
  Cl  Cl3375  1  0.68750000  0.81250000  0.93750000  1
  Cl  Cl3376  1  0.93750000  0.06250000  0.18750000  1
  Cl  Cl3377  1  0.93750000  0.06250000  0.43750000  1
  Cl  Cl3378  1  0.93750000  0.06250000  0.68750000  1
  Cl  Cl3379  1  0.93750000  0.06250000  0.93750000  1
  Cl  Cl3380  1  0.93750000  0.31250000  0.18750000  1
  Cl  Cl3381  1  0.93750000  0.31250000  0.43750000  1
  Cl  Cl3382  1  0.93750000  0.31250000  0.68750000  1
  Cl  Cl3383  1  0.93750000  0.31250000  0.93750000  1
  Cl  Cl3384  1  0.93750000  0.56250000  0.18750000  1
  Cl  Cl3385  1  0.93750000  0.56250000  0.43750000  1
  Cl  Cl3386  1  0.93750000  0.56250000  0.68750000  1
  Cl  Cl3387  1  0.93750000  0.56250000  0.93750000  1
  Cl  Cl3388  1  0.93750000  0.81250000  0.18750000  1
  Cl  Cl3389  1  0.93750000  0.81250000  0.43750000  1
  Cl  Cl3390  1  0.93750000  0.81250000  0.68750000  1
  Cl  Cl3391  1  0.93750000  0.81250000  0.93750000  1
  Cl  Cl3392  1  0.06250000  0.18750000  0.18750000  1
  Cl  Cl3393  1  0.06250000  0.18750000  0.43750000  1
  Cl  Cl3394  1  0.06250000  0.18750000  0.68750000  1
  Cl  Cl3395  1  0.06250000  0.18750000  0.93750000  1
  Cl  Cl3396  1  0.06250000  0.43750000  0.18750000  1
  Cl  Cl3397  1  0.06250000  0.43750000  0.43750000  1
  Cl  Cl3398  1  0.06250000  0.43750000  0.68750000  1
  Cl  Cl3399  1  0.06250000  0.43750000  0.93750000  1
  Cl  Cl3400  1  0.06250000  0.68750000  0.18750000  1
  Cl  Cl3401  1  0.06250000  0.68750000  0.43750000  1
  Cl  Cl3402  1  0.06250000  0.68750000  0.68750000  1
  Cl  Cl3403  1  0.06250000  0.68750000  0.93750000  1
  Cl  Cl3404  1  0.06250000  0.93750000  0.18750000  1
  Cl  Cl3405  1  0.06250000  0.93750000  0.43750000  1
  Cl  Cl3406  1  0.06250000  0.93750000  0.68750000  1
  Cl  Cl3407  1  0.06250000  0.93750000  0.93750000  1
  Cl  Cl3408  1  0.31250000  0.18750000  0.18750000  1
  Cl  Cl3409  1  0.31250000  0.18750000  0.43750000  1
  Cl  Cl3410  1  0.31250000  0.18750000  0.68750000  1
  Cl  Cl3411  1  0.31250000  0.18750000  0.93750000  1
  Cl  Cl3412  1  0.31250000  0.43750000  0.18750000  1
  Cl  Cl3413  1  0.31250000  0.43750000  0.43750000  1
  Cl  Cl3414  1  0.31250000  0.43750000  0.68750000  1
  Cl  Cl3415  1  0.31250000  0.43750000  0.93750000  1
  Cl  Cl3416  1  0.31250000  0.68750000  0.18750000  1
  Cl  Cl3417  1  0.31250000  0.68750000  0.43750000  1
  Cl  Cl3418  1  0.31250000  0.68750000  0.68750000  1
  Cl  Cl3419  1  0.31250000  0.68750000  0.93750000  1
  Cl  Cl3420  1  0.31250000  0.93750000  0.18750000  1
  Cl  Cl3421  1  0.31250000  0.93750000  0.43750000  1
  Cl  Cl3422  1  0.31250000  0.93750000  0.68750000  1
  Cl  Cl3423  1  0.31250000  0.93750000  0.93750000  1
  Cl  Cl3424  1  0.56250000  0.18750000  0.18750000  1
  Cl  Cl3425  1  0.56250000  0.18750000  0.43750000  1
  Cl  Cl3426  1  0.56250000  0.18750000  0.68750000  1
  Cl  Cl3427  1  0.56250000  0.18750000  0.93750000  1
  Cl  Cl3428  1  0.56250000  0.43750000  0.18750000  1
  Cl  Cl3429  1  0.56250000  0.43750000  0.43750000  1
  Cl  Cl3430  1  0.56250000  0.43750000  0.68750000  1
  Cl  Cl3431  1  0.56250000  0.43750000  0.93750000  1
  Cl  Cl3432  1  0.56250000  0.68750000  0.18750000  1
  Cl  Cl3433  1  0.56250000  0.68750000  0.43750000  1
  Cl  Cl3434  1  0.56250000  0.68750000  0.68750000  1
  Cl  Cl3435  1  0.56250000  0.68750000  0.93750000  1
  Cl  Cl3436  1  0.56250000  0.93750000  0.18750000  1
  Cl  Cl3437  1  0.56250000  0.93750000  0.43750000  1
  Cl  Cl3438  1  0.56250000  0.93750000  0.68750000  1
  Cl  Cl3439  1  0.56250000  0.93750000  0.93750000  1
  Cl  Cl3440  1  0.81250000  0.18750000  0.18750000  1
  Cl  Cl3441  1  0.81250000  0.18750000  0.43750000  1
  Cl  Cl3442  1  0.81250000  0.18750000  0.68750000  1
  Cl  Cl3443  1  0.81250000  0.18750000  0.93750000  1
  Cl  Cl3444  1  0.81250000  0.43750000  0.18750000  1
  Cl  Cl3445  1  0.81250000  0.43750000  0.43750000  1
  Cl  Cl3446  1  0.81250000  0.43750000  0.68750000  1
  Cl  Cl3447  1  0.81250000  0.43750000  0.93750000  1
  Cl  Cl3448  1  0.81250000  0.68750000  0.18750000  1
  Cl  Cl3449  1  0.81250000  0.68750000  0.43750000  1
  Cl  Cl3450  1  0.81250000  0.68750000  0.68750000  1
  Cl  Cl3451  1  0.81250000  0.68750000  0.93750000  1
  Cl  Cl3452  1  0.81250000  0.93750000  0.18750000  1
  Cl  Cl3453  1  0.81250000  0.93750000  0.43750000  1
  Cl  Cl3454  1  0.81250000  0.93750000  0.68750000  1
  Cl  Cl3455  1  0.81250000  0.93750000  0.93750000  1
