
#======================================================================
# CRYSTAL DATA
#----------------------------------------------------------------------
data_VESTA_phase_1

_chemical_name_common                  'New structure'
_cell_length_a                         10.403700
_cell_length_b                         10.403700
_cell_length_c                         10.403700
_cell_angle_alpha                      90.000000
_cell_angle_beta                       90.000000
_cell_angle_gamma                      90.000000
_cell_volume                           1126.064963
_space_group_name_H-M_alt              'F d -3 m:2'
_space_group_IT_number                 227

loop_
_space_group_symop_operation_xyz
   'x, y, z'
   '-x, -y, -z'
   '-x+3/4, -y+1/4, z+1/2'
   'x+1/4, y+3/4, -z+1/2'
   '-x+1/4, y+1/2, -z+3/4'
   'x+3/4, -y+1/2, z+1/4'
   'x+1/2, -y+3/4, -z+1/4'
   '-x+1/2, y+1/4, z+3/4'
   'z, x, y'
   '-z, -x, -y'
   'z+1/2, -x+3/4, -y+1/4'
   '-z+1/2, x+1/4, y+3/4'
   '-z+3/4, -x+1/4, y+1/2'
   'z+1/4, x+3/4, -y+1/2'
   '-z+1/4, x+1/2, -y+3/4'
   'z+3/4, -x+1/2, y+1/4'
   'y, z, x'
   '-y, -z, -x'
   '-y+1/4, z+1/2, -x+3/4'
   'y+3/4, -z+1/2, x+1/4'
   'y+1/2, -z+3/4, -x+1/4'
   '-y+1/2, z+1/4, x+3/4'
   '-y+3/4, -z+1/4, x+1/2'
   'y+1/4, z+3/4, -x+1/2'
   'y+3/4, x+1/4, -z+1/2'
   '-y+1/4, -x+3/4, z+1/2'
   '-y, -x, -z'
   'y, x, z'
   'y+1/4, -x+1/2, z+3/4'
   '-y+3/4, x+1/2, -z+1/4'
   '-y+1/2, x+3/4, z+1/4'
   'y+1/2, -x+1/4, -z+3/4'
   'x+3/4, z+1/4, -y+1/2'
   '-x+1/4, -z+3/4, y+1/2'
   '-x+1/2, z+3/4, y+1/4'
   'x+1/2, -z+1/4, -y+3/4'
   '-x, -z, -y'
   'x, z, y'
   'x+1/4, -z+1/2, y+3/4'
   '-x+3/4, z+1/2, -y+1/4'
   'z+3/4, y+1/4, -x+1/2'
   '-z+1/4, -y+3/4, x+1/2'
   'z+1/4, -y+1/2, x+3/4'
   '-z+3/4, y+1/2, -x+1/4'
   '-z+1/2, y+3/4, x+1/4'
   'z+1/2, -y+1/4, -x+3/4'
   '-z, -y, -x'
   'z, y, x'
   'x, y+1/2, z+1/2'
   '-x, -y+1/2, -z+1/2'
   '-x+3/4, -y+3/4, z'
   'x+1/4, y+1/4, -z'
   '-x+1/4, y, -z+1/4'
   'x+3/4, -y, z+3/4'
   'x+1/2, -y+1/4, -z+3/4'
   '-x+1/2, y+3/4, z+1/4'
   'z, x+1/2, y+1/2'
   '-z, -x+1/2, -y+1/2'
   'z+1/2, -x+1/4, -y+3/4'
   '-z+1/2, x+3/4, y+1/4'
   '-z+3/4, -x+3/4, y'
   'z+1/4, x+1/4, -y'
   '-z+1/4, x, -y+1/4'
   'z+3/4, -x, y+3/4'
   'y, z+1/2, x+1/2'
   '-y, -z+1/2, -x+1/2'
   '-y+1/4, z, -x+1/4'
   'y+3/4, -z, x+3/4'
   'y+1/2, -z+1/4, -x+3/4'
   '-y+1/2, z+3/4, x+1/4'
   '-y+3/4, -z+3/4, x'
   'y+1/4, z+1/4, -x'
   'y+3/4, x+3/4, -z'
   '-y+1/4, -x+1/4, z'
   '-y, -x+1/2, -z+1/2'
   'y, x+1/2, z+1/2'
   'y+1/4, -x, z+1/4'
   '-y+3/4, x, -z+3/4'
   '-y+1/2, x+1/4, z+3/4'
   'y+1/2, -x+3/4, -z+1/4'
   'x+3/4, z+3/4, -y'
   '-x+1/4, -z+1/4, y'
   '-x+1/2, z+1/4, y+3/4'
   'x+1/2, -z+3/4, -y+1/4'
   '-x, -z+1/2, -y+1/2'
   'x, z+1/2, y+1/2'
   'x+1/4, -z, y+1/4'
   '-x+3/4, z, -y+3/4'
   'z+3/4, y+3/4, -x'
   '-z+1/4, -y+1/4, x'
   'z+1/4, -y, x+1/4'
   '-z+3/4, y, -x+3/4'
   '-z+1/2, y+1/4, x+3/4'
   'z+1/2, -y+3/4, -x+1/4'
   '-z, -y+1/2, -x+1/2'
   'z, y+1/2, x+1/2'
   'x+1/2, y, z+1/2'
   '-x+1/2, -y, -z+1/2'
   '-x+1/4, -y+1/4, z'
   'x+3/4, y+3/4, -z'
   '-x+3/4, y+1/2, -z+1/4'
   'x+1/4, -y+1/2, z+3/4'
   'x, -y+3/4, -z+3/4'
   '-x, y+1/4, z+1/4'
   'z+1/2, x, y+1/2'
   '-z+1/2, -x, -y+1/2'
   'z, -x+3/4, -y+3/4'
   '-z, x+1/4, y+1/4'
   '-z+1/4, -x+1/4, y'
   'z+3/4, x+3/4, -y'
   '-z+3/4, x+1/2, -y+1/4'
   'z+1/4, -x+1/2, y+3/4'
   'y+1/2, z, x+1/2'
   '-y+1/2, -z, -x+1/2'
   '-y+3/4, z+1/2, -x+1/4'
   'y+1/4, -z+1/2, x+3/4'
   'y, -z+3/4, -x+3/4'
   '-y, z+1/4, x+1/4'
   '-y+1/4, -z+1/4, x'
   'y+3/4, z+3/4, -x'
   'y+1/4, x+1/4, -z'
   '-y+3/4, -x+3/4, z'
   '-y+1/2, -x, -z+1/2'
   'y+1/2, x, z+1/2'
   'y+3/4, -x+1/2, z+1/4'
   '-y+1/4, x+1/2, -z+3/4'
   '-y, x+3/4, z+3/4'
   'y, -x+1/4, -z+1/4'
   'x+1/4, z+1/4, -y'
   '-x+3/4, -z+3/4, y'
   '-x, z+3/4, y+3/4'
   'x, -z+1/4, -y+1/4'
   '-x+1/2, -z, -y+1/2'
   'x+1/2, z, y+1/2'
   'x+3/4, -z+1/2, y+1/4'
   '-x+1/4, z+1/2, -y+3/4'
   'z+1/4, y+1/4, -x'
   '-z+3/4, -y+3/4, x'
   'z+3/4, -y+1/2, x+1/4'
   '-z+1/4, y+1/2, -x+3/4'
   '-z, y+3/4, x+3/4'
   'z, -y+1/4, -x+1/4'
   '-z+1/2, -y, -x+1/2'
   'z+1/2, y, x+1/2'
   'x+1/2, y+1/2, z'
   '-x+1/2, -y+1/2, -z'
   '-x+1/4, -y+3/4, z+1/2'
   'x+3/4, y+1/4, -z+1/2'
   '-x+3/4, y, -z+3/4'
   'x+1/4, -y, z+1/4'
   'x, -y+1/4, -z+1/4'
   '-x, y+3/4, z+3/4'
   'z+1/2, x+1/2, y'
   '-z+1/2, -x+1/2, -y'
   'z, -x+1/4, -y+1/4'
   '-z, x+3/4, y+3/4'
   '-z+1/4, -x+3/4, y+1/2'
   'z+3/4, x+1/4, -y+1/2'
   '-z+3/4, x, -y+3/4'
   'z+1/4, -x, y+1/4'
   'y+1/2, z+1/2, x'
   '-y+1/2, -z+1/2, -x'
   '-y+3/4, z, -x+3/4'
   'y+1/4, -z, x+1/4'
   'y, -z+1/4, -x+1/4'
   '-y, z+3/4, x+3/4'
   '-y+1/4, -z+3/4, x+1/2'
   'y+3/4, z+1/4, -x+1/2'
   'y+1/4, x+3/4, -z+1/2'
   '-y+3/4, -x+1/4, z+1/2'
   '-y+1/2, -x+1/2, -z'
   'y+1/2, x+1/2, z'
   'y+3/4, -x, z+3/4'
   '-y+1/4, x, -z+1/4'
   '-y, x+1/4, z+1/4'
   'y, -x+3/4, -z+3/4'
   'x+1/4, z+3/4, -y+1/2'
   '-x+3/4, -z+1/4, y+1/2'
   '-x, z+1/4, y+1/4'
   'x, -z+3/4, -y+3/4'
   '-x+1/2, -z+1/2, -y'
   'x+1/2, z+1/2, y'
   'x+3/4, -z, y+3/4'
   '-x+1/4, z, -y+1/4'
   'z+1/4, y+3/4, -x+1/2'
   '-z+3/4, -y+1/4, x+1/2'
   'z+3/4, -y, x+3/4'
   '-z+1/4, y, -x+1/4'
   '-z, y+1/4, x+1/4'
   'z, -y+3/4, -x+3/4'
   '-z+1/2, -y+1/2, -x'
   'z+1/2, y+1/2, x'

loop_
_atom_type_symbol
_atom_type_oxidation_number
Li1 1
Li2 1
Li3 1
Li4 1
Sc1 3
Cl1 -1

loop_
   _atom_site_label
   _atom_site_occupancy
   _atom_site_fract_x
   _atom_site_fract_y
   _atom_site_fract_z
   _atom_site_adp_type
   _atom_site_U_iso_or_equiv
   _atom_site_type_symbol
   Li1        0.1410  0.125000     0.125000     0.125000    Uiso  0.025000 Li
   Li2        0.2180  0.000000     0.000000     0.000000    Uiso  0.038000 Li
   Li3        0.0282  0.125000     0.125000     0.886000    Uiso  0.025000 Li
   Li4        0.6890  0.500000     0.500000     0.500000    Uiso  0.002900 Li
   Sc1        0.3110  0.500000     0.500000     0.500000    Uiso  0.002900 Sc
   Cl1        1.0     0.254350     0.254350     0.254350    Uiso  0.020800 Cl
