# generated using pymatgen
data_NaCl
_symmetry_space_group_name_H-M   'P 1'
_cell_length_a   36.22171878
_cell_length_b   36.22171878
_cell_length_c   36.22171878
_cell_angle_alpha   60.00000000
_cell_angle_beta   60.00000000
_cell_angle_gamma   60.00000000
_symmetry_Int_Tables_number   1
_chemical_formula_structural   NaCl
_chemical_formula_sum   'Na729 Cl729'
_cell_volume   33604.09203819
_cell_formula_units_Z   729
loop_
 _symmetry_equiv_pos_site_id
 _symmetry_equiv_pos_as_xyz
  1  'x, y, z'
loop_
 _atom_site_type_symbol
 _atom_site_label
 _atom_site_symmetry_multiplicity
 _atom_site_fract_x
 _atom_site_fract_y
 _atom_site_fract_z
 _atom_site_occupancy
  Na  Na0  1  0.00000000  0.00000000  0.00000000  1.0
  Na  Na1  1  0.00000000  0.00000000  0.11111111  1.0
  Na  Na2  1  0.00000000  0.00000000  0.22222222  1.0
  Na  Na3  1  0.00000000  0.00000000  0.33333333  1.0
  Na  Na4  1  0.00000000  0.00000000  0.44444444  1.0
  Na  Na5  1  0.00000000  0.00000000  0.55555556  1.0
  Na  Na6  1  0.00000000  0.00000000  0.66666667  1.0
  Na  Na7  1  0.00000000  0.00000000  0.77777778  1.0
  Na  Na8  1  0.00000000  0.00000000  0.88888889  1.0
  Na  Na9  1  0.00000000  0.11111111  0.00000000  1.0
  Na  Na10  1  0.00000000  0.11111111  0.11111111  1.0
  Na  Na11  1  0.00000000  0.11111111  0.22222222  1.0
  Na  Na12  1  0.00000000  0.11111111  0.33333333  1.0
  Na  Na13  1  0.00000000  0.11111111  0.44444444  1.0
  Na  Na14  1  0.00000000  0.11111111  0.55555556  1.0
  Na  Na15  1  0.00000000  0.11111111  0.66666667  1.0
  Na  Na16  1  0.00000000  0.11111111  0.77777778  1.0
  Na  Na17  1  0.00000000  0.11111111  0.88888889  1.0
  Na  Na18  1  0.00000000  0.22222222  0.00000000  1.0
  Na  Na19  1  0.00000000  0.22222222  0.11111111  1.0
  Na  Na20  1  0.00000000  0.22222222  0.22222222  1.0
  Na  Na21  1  0.00000000  0.22222222  0.33333333  1.0
  Na  Na22  1  0.00000000  0.22222222  0.44444444  1.0
  Na  Na23  1  0.00000000  0.22222222  0.55555556  1.0
  Na  Na24  1  0.00000000  0.22222222  0.66666667  1.0
  Na  Na25  1  0.00000000  0.22222222  0.77777778  1.0
  Na  Na26  1  0.00000000  0.22222222  0.88888889  1.0
  Na  Na27  1  0.00000000  0.33333333  0.00000000  1.0
  Na  Na28  1  0.00000000  0.33333333  0.11111111  1.0
  Na  Na29  1  0.00000000  0.33333333  0.22222222  1.0
  Na  Na30  1  0.00000000  0.33333333  0.33333333  1.0
  Na  Na31  1  0.00000000  0.33333333  0.44444444  1.0
  Na  Na32  1  0.00000000  0.33333333  0.55555556  1.0
  Na  Na33  1  0.00000000  0.33333333  0.66666667  1.0
  Na  Na34  1  0.00000000  0.33333333  0.77777778  1.0
  Na  Na35  1  0.00000000  0.33333333  0.88888889  1.0
  Na  Na36  1  0.00000000  0.44444444  0.00000000  1.0
  Na  Na37  1  0.00000000  0.44444444  0.11111111  1.0
  Na  Na38  1  0.00000000  0.44444444  0.22222222  1.0
  Na  Na39  1  0.00000000  0.44444444  0.33333333  1.0
  Na  Na40  1  0.00000000  0.44444444  0.44444444  1.0
  Na  Na41  1  0.00000000  0.44444444  0.55555556  1.0
  Na  Na42  1  0.00000000  0.44444444  0.66666667  1.0
  Na  Na43  1  0.00000000  0.44444444  0.77777778  1.0
  Na  Na44  1  0.00000000  0.44444444  0.88888889  1.0
  Na  Na45  1  0.00000000  0.55555556  0.00000000  1.0
  Na  Na46  1  0.00000000  0.55555556  0.11111111  1.0
  Na  Na47  1  0.00000000  0.55555556  0.22222222  1.0
  Na  Na48  1  0.00000000  0.55555556  0.33333333  1.0
  Na  Na49  1  0.00000000  0.55555556  0.44444444  1.0
  Na  Na50  1  0.00000000  0.55555556  0.55555556  1.0
  Na  Na51  1  0.00000000  0.55555556  0.66666667  1.0
  Na  Na52  1  0.00000000  0.55555556  0.77777778  1.0
  Na  Na53  1  0.00000000  0.55555556  0.88888889  1.0
  Na  Na54  1  0.00000000  0.66666667  0.00000000  1.0
  Na  Na55  1  0.00000000  0.66666667  0.11111111  1.0
  Na  Na56  1  0.00000000  0.66666667  0.22222222  1.0
  Na  Na57  1  0.00000000  0.66666667  0.33333333  1.0
  Na  Na58  1  0.00000000  0.66666667  0.44444444  1.0
  Na  Na59  1  0.00000000  0.66666667  0.55555556  1.0
  Na  Na60  1  0.00000000  0.66666667  0.66666667  1.0
  Na  Na61  1  0.00000000  0.66666667  0.77777778  1.0
  Na  Na62  1  0.00000000  0.66666667  0.88888889  1.0
  Na  Na63  1  0.00000000  0.77777778  0.00000000  1.0
  Na  Na64  1  0.00000000  0.77777778  0.11111111  1.0
  Na  Na65  1  0.00000000  0.77777778  0.22222222  1.0
  Na  Na66  1  0.00000000  0.77777778  0.33333333  1.0
  Na  Na67  1  0.00000000  0.77777778  0.44444444  1.0
  Na  Na68  1  0.00000000  0.77777778  0.55555556  1.0
  Na  Na69  1  0.00000000  0.77777778  0.66666667  1.0
  Na  Na70  1  0.00000000  0.77777778  0.77777778  1.0
  Na  Na71  1  0.00000000  0.77777778  0.88888889  1.0
  Na  Na72  1  0.00000000  0.88888889  0.00000000  1.0
  Na  Na73  1  0.00000000  0.88888889  0.11111111  1.0
  Na  Na74  1  0.00000000  0.88888889  0.22222222  1.0
  Na  Na75  1  0.00000000  0.88888889  0.33333333  1.0
  Na  Na76  1  0.00000000  0.88888889  0.44444444  1.0
  Na  Na77  1  0.00000000  0.88888889  0.55555556  1.0
  Na  Na78  1  0.00000000  0.88888889  0.66666667  1.0
  Na  Na79  1  0.00000000  0.88888889  0.77777778  1.0
  Na  Na80  1  0.00000000  0.88888889  0.88888889  1.0
  Na  Na81  1  0.11111111  0.00000000  1.00000000  1.0
  Na  Na82  1  0.11111111  0.00000000  0.11111111  1.0
  Na  Na83  1  0.11111111  0.00000000  0.22222222  1.0
  Na  Na84  1  0.11111111  0.00000000  0.33333333  1.0
  Na  Na85  1  0.11111111  0.00000000  0.44444444  1.0
  Na  Na86  1  0.11111111  0.00000000  0.55555556  1.0
  Na  Na87  1  0.11111111  0.00000000  0.66666667  1.0
  Na  Na88  1  0.11111111  0.00000000  0.77777778  1.0
  Na  Na89  1  0.11111111  0.00000000  0.88888889  1.0
  Na  Na90  1  0.11111111  0.11111111  0.00000000  1.0
  Na  Na91  1  0.11111111  0.11111111  0.11111111  1.0
  Na  Na92  1  0.11111111  0.11111111  0.22222222  1.0
  Na  Na93  1  0.11111111  0.11111111  0.33333333  1.0
  Na  Na94  1  0.11111111  0.11111111  0.44444444  1.0
  Na  Na95  1  0.11111111  0.11111111  0.55555556  1.0
  Na  Na96  1  0.11111111  0.11111111  0.66666667  1.0
  Na  Na97  1  0.11111111  0.11111111  0.77777778  1.0
  Na  Na98  1  0.11111111  0.11111111  0.88888889  1.0
  Na  Na99  1  0.11111111  0.22222222  0.00000000  1.0
  Na  Na100  1  0.11111111  0.22222222  0.11111111  1.0
  Na  Na101  1  0.11111111  0.22222222  0.22222222  1.0
  Na  Na102  1  0.11111111  0.22222222  0.33333333  1.0
  Na  Na103  1  0.11111111  0.22222222  0.44444444  1.0
  Na  Na104  1  0.11111111  0.22222222  0.55555556  1.0
  Na  Na105  1  0.11111111  0.22222222  0.66666667  1.0
  Na  Na106  1  0.11111111  0.22222222  0.77777778  1.0
  Na  Na107  1  0.11111111  0.22222222  0.88888889  1.0
  Na  Na108  1  0.11111111  0.33333333  0.00000000  1.0
  Na  Na109  1  0.11111111  0.33333333  0.11111111  1.0
  Na  Na110  1  0.11111111  0.33333333  0.22222222  1.0
  Na  Na111  1  0.11111111  0.33333333  0.33333333  1.0
  Na  Na112  1  0.11111111  0.33333333  0.44444444  1.0
  Na  Na113  1  0.11111111  0.33333333  0.55555556  1.0
  Na  Na114  1  0.11111111  0.33333333  0.66666667  1.0
  Na  Na115  1  0.11111111  0.33333333  0.77777778  1.0
  Na  Na116  1  0.11111111  0.33333333  0.88888889  1.0
  Na  Na117  1  0.11111111  0.44444444  0.00000000  1.0
  Na  Na118  1  0.11111111  0.44444444  0.11111111  1.0
  Na  Na119  1  0.11111111  0.44444444  0.22222222  1.0
  Na  Na120  1  0.11111111  0.44444444  0.33333333  1.0
  Na  Na121  1  0.11111111  0.44444444  0.44444444  1.0
  Na  Na122  1  0.11111111  0.44444444  0.55555556  1.0
  Na  Na123  1  0.11111111  0.44444444  0.66666667  1.0
  Na  Na124  1  0.11111111  0.44444444  0.77777778  1.0
  Na  Na125  1  0.11111111  0.44444444  0.88888889  1.0
  Na  Na126  1  0.11111111  0.55555556  0.00000000  1.0
  Na  Na127  1  0.11111111  0.55555556  0.11111111  1.0
  Na  Na128  1  0.11111111  0.55555556  0.22222222  1.0
  Na  Na129  1  0.11111111  0.55555556  0.33333333  1.0
  Na  Na130  1  0.11111111  0.55555556  0.44444444  1.0
  Na  Na131  1  0.11111111  0.55555556  0.55555556  1.0
  Na  Na132  1  0.11111111  0.55555556  0.66666667  1.0
  Na  Na133  1  0.11111111  0.55555556  0.77777778  1.0
  Na  Na134  1  0.11111111  0.55555556  0.88888889  1.0
  Na  Na135  1  0.11111111  0.66666667  0.00000000  1.0
  Na  Na136  1  0.11111111  0.66666667  0.11111111  1.0
  Na  Na137  1  0.11111111  0.66666667  0.22222222  1.0
  Na  Na138  1  0.11111111  0.66666667  0.33333333  1.0
  Na  Na139  1  0.11111111  0.66666667  0.44444444  1.0
  Na  Na140  1  0.11111111  0.66666667  0.55555556  1.0
  Na  Na141  1  0.11111111  0.66666667  0.66666667  1.0
  Na  Na142  1  0.11111111  0.66666667  0.77777778  1.0
  Na  Na143  1  0.11111111  0.66666667  0.88888889  1.0
  Na  Na144  1  0.11111111  0.77777778  0.00000000  1.0
  Na  Na145  1  0.11111111  0.77777778  0.11111111  1.0
  Na  Na146  1  0.11111111  0.77777778  0.22222222  1.0
  Na  Na147  1  0.11111111  0.77777778  0.33333333  1.0
  Na  Na148  1  0.11111111  0.77777778  0.44444444  1.0
  Na  Na149  1  0.11111111  0.77777778  0.55555556  1.0
  Na  Na150  1  0.11111111  0.77777778  0.66666667  1.0
  Na  Na151  1  0.11111111  0.77777778  0.77777778  1.0
  Na  Na152  1  0.11111111  0.77777778  0.88888889  1.0
  Na  Na153  1  0.11111111  0.88888889  0.00000000  1.0
  Na  Na154  1  0.11111111  0.88888889  0.11111111  1.0
  Na  Na155  1  0.11111111  0.88888889  0.22222222  1.0
  Na  Na156  1  0.11111111  0.88888889  0.33333333  1.0
  Na  Na157  1  0.11111111  0.88888889  0.44444444  1.0
  Na  Na158  1  0.11111111  0.88888889  0.55555556  1.0
  Na  Na159  1  0.11111111  0.88888889  0.66666667  1.0
  Na  Na160  1  0.11111111  0.88888889  0.77777778  1.0
  Na  Na161  1  0.11111111  0.88888889  0.88888889  1.0
  Na  Na162  1  0.22222222  0.00000000  1.00000000  1.0
  Na  Na163  1  0.22222222  0.00000000  0.11111111  1.0
  Na  Na164  1  0.22222222  0.00000000  0.22222222  1.0
  Na  Na165  1  0.22222222  0.00000000  0.33333333  1.0
  Na  Na166  1  0.22222222  0.00000000  0.44444444  1.0
  Na  Na167  1  0.22222222  0.00000000  0.55555556  1.0
  Na  Na168  1  0.22222222  0.00000000  0.66666667  1.0
  Na  Na169  1  0.22222222  0.00000000  0.77777778  1.0
  Na  Na170  1  0.22222222  0.00000000  0.88888889  1.0
  Na  Na171  1  0.22222222  0.11111111  1.00000000  1.0
  Na  Na172  1  0.22222222  0.11111111  0.11111111  1.0
  Na  Na173  1  0.22222222  0.11111111  0.22222222  1.0
  Na  Na174  1  0.22222222  0.11111111  0.33333333  1.0
  Na  Na175  1  0.22222222  0.11111111  0.44444444  1.0
  Na  Na176  1  0.22222222  0.11111111  0.55555556  1.0
  Na  Na177  1  0.22222222  0.11111111  0.66666667  1.0
  Na  Na178  1  0.22222222  0.11111111  0.77777778  1.0
  Na  Na179  1  0.22222222  0.11111111  0.88888889  1.0
  Na  Na180  1  0.22222222  0.22222222  0.00000000  1.0
  Na  Na181  1  0.22222222  0.22222222  0.11111111  1.0
  Na  Na182  1  0.22222222  0.22222222  0.22222222  1.0
  Na  Na183  1  0.22222222  0.22222222  0.33333333  1.0
  Na  Na184  1  0.22222222  0.22222222  0.44444444  1.0
  Na  Na185  1  0.22222222  0.22222222  0.55555556  1.0
  Na  Na186  1  0.22222222  0.22222222  0.66666667  1.0
  Na  Na187  1  0.22222222  0.22222222  0.77777778  1.0
  Na  Na188  1  0.22222222  0.22222222  0.88888889  1.0
  Na  Na189  1  0.22222222  0.33333333  0.00000000  1.0
  Na  Na190  1  0.22222222  0.33333333  0.11111111  1.0
  Na  Na191  1  0.22222222  0.33333333  0.22222222  1.0
  Na  Na192  1  0.22222222  0.33333333  0.33333333  1.0
  Na  Na193  1  0.22222222  0.33333333  0.44444444  1.0
  Na  Na194  1  0.22222222  0.33333333  0.55555556  1.0
  Na  Na195  1  0.22222222  0.33333333  0.66666667  1.0
  Na  Na196  1  0.22222222  0.33333333  0.77777778  1.0
  Na  Na197  1  0.22222222  0.33333333  0.88888889  1.0
  Na  Na198  1  0.22222222  0.44444444  0.00000000  1.0
  Na  Na199  1  0.22222222  0.44444444  0.11111111  1.0
  Na  Na200  1  0.22222222  0.44444444  0.22222222  1.0
  Na  Na201  1  0.22222222  0.44444444  0.33333333  1.0
  Na  Na202  1  0.22222222  0.44444444  0.44444444  1.0
  Na  Na203  1  0.22222222  0.44444444  0.55555556  1.0
  Na  Na204  1  0.22222222  0.44444444  0.66666667  1.0
  Na  Na205  1  0.22222222  0.44444444  0.77777778  1.0
  Na  Na206  1  0.22222222  0.44444444  0.88888889  1.0
  Na  Na207  1  0.22222222  0.55555556  0.00000000  1.0
  Na  Na208  1  0.22222222  0.55555556  0.11111111  1.0
  Na  Na209  1  0.22222222  0.55555556  0.22222222  1.0
  Na  Na210  1  0.22222222  0.55555556  0.33333333  1.0
  Na  Na211  1  0.22222222  0.55555556  0.44444444  1.0
  Na  Na212  1  0.22222222  0.55555556  0.55555556  1.0
  Na  Na213  1  0.22222222  0.55555556  0.66666667  1.0
  Na  Na214  1  0.22222222  0.55555556  0.77777778  1.0
  Na  Na215  1  0.22222222  0.55555556  0.88888889  1.0
  Na  Na216  1  0.22222222  0.66666667  0.00000000  1.0
  Na  Na217  1  0.22222222  0.66666667  0.11111111  1.0
  Na  Na218  1  0.22222222  0.66666667  0.22222222  1.0
  Na  Na219  1  0.22222222  0.66666667  0.33333333  1.0
  Na  Na220  1  0.22222222  0.66666667  0.44444444  1.0
  Na  Na221  1  0.22222222  0.66666667  0.55555556  1.0
  Na  Na222  1  0.22222222  0.66666667  0.66666667  1.0
  Na  Na223  1  0.22222222  0.66666667  0.77777778  1.0
  Na  Na224  1  0.22222222  0.66666667  0.88888889  1.0
  Na  Na225  1  0.22222222  0.77777778  1.00000000  1.0
  Na  Na226  1  0.22222222  0.77777778  0.11111111  1.0
  Na  Na227  1  0.22222222  0.77777778  0.22222222  1.0
  Na  Na228  1  0.22222222  0.77777778  0.33333333  1.0
  Na  Na229  1  0.22222222  0.77777778  0.44444444  1.0
  Na  Na230  1  0.22222222  0.77777778  0.55555556  1.0
  Na  Na231  1  0.22222222  0.77777778  0.66666667  1.0
  Na  Na232  1  0.22222222  0.77777778  0.77777778  1.0
  Na  Na233  1  0.22222222  0.77777778  0.88888889  1.0
  Na  Na234  1  0.22222222  0.88888889  0.00000000  1.0
  Na  Na235  1  0.22222222  0.88888889  0.11111111  1.0
  Na  Na236  1  0.22222222  0.88888889  0.22222222  1.0
  Na  Na237  1  0.22222222  0.88888889  0.33333333  1.0
  Na  Na238  1  0.22222222  0.88888889  0.44444444  1.0
  Na  Na239  1  0.22222222  0.88888889  0.55555556  1.0
  Na  Na240  1  0.22222222  0.88888889  0.66666667  1.0
  Na  Na241  1  0.22222222  0.88888889  0.77777778  1.0
  Na  Na242  1  0.22222222  0.88888889  0.88888889  1.0
  Na  Na243  1  0.33333333  0.00000000  0.00000000  1.0
  Na  Na244  1  0.33333333  0.00000000  0.11111111  1.0
  Na  Na245  1  0.33333333  0.00000000  0.22222222  1.0
  Na  Na246  1  0.33333333  0.00000000  0.33333333  1.0
  Na  Na247  1  0.33333333  0.00000000  0.44444444  1.0
  Na  Na248  1  0.33333333  0.00000000  0.55555556  1.0
  Na  Na249  1  0.33333333  0.00000000  0.66666667  1.0
  Na  Na250  1  0.33333333  0.00000000  0.77777778  1.0
  Na  Na251  1  0.33333333  0.00000000  0.88888889  1.0
  Na  Na252  1  0.33333333  0.11111111  1.00000000  1.0
  Na  Na253  1  0.33333333  0.11111111  0.11111111  1.0
  Na  Na254  1  0.33333333  0.11111111  0.22222222  1.0
  Na  Na255  1  0.33333333  0.11111111  0.33333333  1.0
  Na  Na256  1  0.33333333  0.11111111  0.44444444  1.0
  Na  Na257  1  0.33333333  0.11111111  0.55555556  1.0
  Na  Na258  1  0.33333333  0.11111111  0.66666667  1.0
  Na  Na259  1  0.33333333  0.11111111  0.77777778  1.0
  Na  Na260  1  0.33333333  0.11111111  0.88888889  1.0
  Na  Na261  1  0.33333333  0.22222222  0.00000000  1.0
  Na  Na262  1  0.33333333  0.22222222  0.11111111  1.0
  Na  Na263  1  0.33333333  0.22222222  0.22222222  1.0
  Na  Na264  1  0.33333333  0.22222222  0.33333333  1.0
  Na  Na265  1  0.33333333  0.22222222  0.44444444  1.0
  Na  Na266  1  0.33333333  0.22222222  0.55555556  1.0
  Na  Na267  1  0.33333333  0.22222222  0.66666667  1.0
  Na  Na268  1  0.33333333  0.22222222  0.77777778  1.0
  Na  Na269  1  0.33333333  0.22222222  0.88888889  1.0
  Na  Na270  1  0.33333333  0.33333333  0.00000000  1.0
  Na  Na271  1  0.33333333  0.33333333  0.11111111  1.0
  Na  Na272  1  0.33333333  0.33333333  0.22222222  1.0
  Na  Na273  1  0.33333333  0.33333333  0.33333333  1.0
  Na  Na274  1  0.33333333  0.33333333  0.44444444  1.0
  Na  Na275  1  0.33333333  0.33333333  0.55555556  1.0
  Na  Na276  1  0.33333333  0.33333333  0.66666667  1.0
  Na  Na277  1  0.33333333  0.33333333  0.77777778  1.0
  Na  Na278  1  0.33333333  0.33333333  0.88888889  1.0
  Na  Na279  1  0.33333333  0.44444444  1.00000000  1.0
  Na  Na280  1  0.33333333  0.44444444  0.11111111  1.0
  Na  Na281  1  0.33333333  0.44444444  0.22222222  1.0
  Na  Na282  1  0.33333333  0.44444444  0.33333333  1.0
  Na  Na283  1  0.33333333  0.44444444  0.44444444  1.0
  Na  Na284  1  0.33333333  0.44444444  0.55555556  1.0
  Na  Na285  1  0.33333333  0.44444444  0.66666667  1.0
  Na  Na286  1  0.33333333  0.44444444  0.77777778  1.0
  Na  Na287  1  0.33333333  0.44444444  0.88888889  1.0
  Na  Na288  1  0.33333333  0.55555556  1.00000000  1.0
  Na  Na289  1  0.33333333  0.55555556  0.11111111  1.0
  Na  Na290  1  0.33333333  0.55555556  0.22222222  1.0
  Na  Na291  1  0.33333333  0.55555556  0.33333333  1.0
  Na  Na292  1  0.33333333  0.55555556  0.44444444  1.0
  Na  Na293  1  0.33333333  0.55555556  0.55555556  1.0
  Na  Na294  1  0.33333333  0.55555556  0.66666667  1.0
  Na  Na295  1  0.33333333  0.55555556  0.77777778  1.0
  Na  Na296  1  0.33333333  0.55555556  0.88888889  1.0
  Na  Na297  1  0.33333333  0.66666667  0.00000000  1.0
  Na  Na298  1  0.33333333  0.66666667  0.11111111  1.0
  Na  Na299  1  0.33333333  0.66666667  0.22222222  1.0
  Na  Na300  1  0.33333333  0.66666667  0.33333333  1.0
  Na  Na301  1  0.33333333  0.66666667  0.44444444  1.0
  Na  Na302  1  0.33333333  0.66666667  0.55555556  1.0
  Na  Na303  1  0.33333333  0.66666667  0.66666667  1.0
  Na  Na304  1  0.33333333  0.66666667  0.77777778  1.0
  Na  Na305  1  0.33333333  0.66666667  0.88888889  1.0
  Na  Na306  1  0.33333333  0.77777778  0.00000000  1.0
  Na  Na307  1  0.33333333  0.77777778  0.11111111  1.0
  Na  Na308  1  0.33333333  0.77777778  0.22222222  1.0
  Na  Na309  1  0.33333333  0.77777778  0.33333333  1.0
  Na  Na310  1  0.33333333  0.77777778  0.44444444  1.0
  Na  Na311  1  0.33333333  0.77777778  0.55555556  1.0
  Na  Na312  1  0.33333333  0.77777778  0.66666667  1.0
  Na  Na313  1  0.33333333  0.77777778  0.77777778  1.0
  Na  Na314  1  0.33333333  0.77777778  0.88888889  1.0
  Na  Na315  1  0.33333333  0.88888889  0.00000000  1.0
  Na  Na316  1  0.33333333  0.88888889  0.11111111  1.0
  Na  Na317  1  0.33333333  0.88888889  0.22222222  1.0
  Na  Na318  1  0.33333333  0.88888889  0.33333333  1.0
  Na  Na319  1  0.33333333  0.88888889  0.44444444  1.0
  Na  Na320  1  0.33333333  0.88888889  0.55555556  1.0
  Na  Na321  1  0.33333333  0.88888889  0.66666667  1.0
  Na  Na322  1  0.33333333  0.88888889  0.77777778  1.0
  Na  Na323  1  0.33333333  0.88888889  0.88888889  1.0
  Na  Na324  1  0.44444444  0.00000000  1.00000000  1.0
  Na  Na325  1  0.44444444  0.00000000  0.11111111  1.0
  Na  Na326  1  0.44444444  0.00000000  0.22222222  1.0
  Na  Na327  1  0.44444444  0.00000000  0.33333333  1.0
  Na  Na328  1  0.44444444  0.00000000  0.44444444  1.0
  Na  Na329  1  0.44444444  0.00000000  0.55555556  1.0
  Na  Na330  1  0.44444444  0.00000000  0.66666667  1.0
  Na  Na331  1  0.44444444  0.00000000  0.77777778  1.0
  Na  Na332  1  0.44444444  0.00000000  0.88888889  1.0
  Na  Na333  1  0.44444444  0.11111111  1.00000000  1.0
  Na  Na334  1  0.44444444  0.11111111  0.11111111  1.0
  Na  Na335  1  0.44444444  0.11111111  0.22222222  1.0
  Na  Na336  1  0.44444444  0.11111111  0.33333333  1.0
  Na  Na337  1  0.44444444  0.11111111  0.44444444  1.0
  Na  Na338  1  0.44444444  0.11111111  0.55555556  1.0
  Na  Na339  1  0.44444444  0.11111111  0.66666667  1.0
  Na  Na340  1  0.44444444  0.11111111  0.77777778  1.0
  Na  Na341  1  0.44444444  0.11111111  0.88888889  1.0
  Na  Na342  1  0.44444444  0.22222222  1.00000000  1.0
  Na  Na343  1  0.44444444  0.22222222  0.11111111  1.0
  Na  Na344  1  0.44444444  0.22222222  0.22222222  1.0
  Na  Na345  1  0.44444444  0.22222222  0.33333333  1.0
  Na  Na346  1  0.44444444  0.22222222  0.44444444  1.0
  Na  Na347  1  0.44444444  0.22222222  0.55555556  1.0
  Na  Na348  1  0.44444444  0.22222222  0.66666667  1.0
  Na  Na349  1  0.44444444  0.22222222  0.77777778  1.0
  Na  Na350  1  0.44444444  0.22222222  0.88888889  1.0
  Na  Na351  1  0.44444444  0.33333333  1.00000000  1.0
  Na  Na352  1  0.44444444  0.33333333  0.11111111  1.0
  Na  Na353  1  0.44444444  0.33333333  0.22222222  1.0
  Na  Na354  1  0.44444444  0.33333333  0.33333333  1.0
  Na  Na355  1  0.44444444  0.33333333  0.44444444  1.0
  Na  Na356  1  0.44444444  0.33333333  0.55555556  1.0
  Na  Na357  1  0.44444444  0.33333333  0.66666667  1.0
  Na  Na358  1  0.44444444  0.33333333  0.77777778  1.0
  Na  Na359  1  0.44444444  0.33333333  0.88888889  1.0
  Na  Na360  1  0.44444444  0.44444444  0.00000000  1.0
  Na  Na361  1  0.44444444  0.44444444  0.11111111  1.0
  Na  Na362  1  0.44444444  0.44444444  0.22222222  1.0
  Na  Na363  1  0.44444444  0.44444444  0.33333333  1.0
  Na  Na364  1  0.44444444  0.44444444  0.44444444  1.0
  Na  Na365  1  0.44444444  0.44444444  0.55555556  1.0
  Na  Na366  1  0.44444444  0.44444444  0.66666667  1.0
  Na  Na367  1  0.44444444  0.44444444  0.77777778  1.0
  Na  Na368  1  0.44444444  0.44444444  0.88888889  1.0
  Na  Na369  1  0.44444444  0.55555556  0.00000000  1.0
  Na  Na370  1  0.44444444  0.55555556  0.11111111  1.0
  Na  Na371  1  0.44444444  0.55555556  0.22222222  1.0
  Na  Na372  1  0.44444444  0.55555556  0.33333333  1.0
  Na  Na373  1  0.44444444  0.55555556  0.44444444  1.0
  Na  Na374  1  0.44444444  0.55555556  0.55555556  1.0
  Na  Na375  1  0.44444444  0.55555556  0.66666667  1.0
  Na  Na376  1  0.44444444  0.55555556  0.77777778  1.0
  Na  Na377  1  0.44444444  0.55555556  0.88888889  1.0
  Na  Na378  1  0.44444444  0.66666667  0.00000000  1.0
  Na  Na379  1  0.44444444  0.66666667  0.11111111  1.0
  Na  Na380  1  0.44444444  0.66666667  0.22222222  1.0
  Na  Na381  1  0.44444444  0.66666667  0.33333333  1.0
  Na  Na382  1  0.44444444  0.66666667  0.44444444  1.0
  Na  Na383  1  0.44444444  0.66666667  0.55555556  1.0
  Na  Na384  1  0.44444444  0.66666667  0.66666667  1.0
  Na  Na385  1  0.44444444  0.66666667  0.77777778  1.0
  Na  Na386  1  0.44444444  0.66666667  0.88888889  1.0
  Na  Na387  1  0.44444444  0.77777778  0.00000000  1.0
  Na  Na388  1  0.44444444  0.77777778  0.11111111  1.0
  Na  Na389  1  0.44444444  0.77777778  0.22222222  1.0
  Na  Na390  1  0.44444444  0.77777778  0.33333333  1.0
  Na  Na391  1  0.44444444  0.77777778  0.44444444  1.0
  Na  Na392  1  0.44444444  0.77777778  0.55555556  1.0
  Na  Na393  1  0.44444444  0.77777778  0.66666667  1.0
  Na  Na394  1  0.44444444  0.77777778  0.77777778  1.0
  Na  Na395  1  0.44444444  0.77777778  0.88888889  1.0
  Na  Na396  1  0.44444444  0.88888889  0.00000000  1.0
  Na  Na397  1  0.44444444  0.88888889  0.11111111  1.0
  Na  Na398  1  0.44444444  0.88888889  0.22222222  1.0
  Na  Na399  1  0.44444444  0.88888889  0.33333333  1.0
  Na  Na400  1  0.44444444  0.88888889  0.44444444  1.0
  Na  Na401  1  0.44444444  0.88888889  0.55555556  1.0
  Na  Na402  1  0.44444444  0.88888889  0.66666667  1.0
  Na  Na403  1  0.44444444  0.88888889  0.77777778  1.0
  Na  Na404  1  0.44444444  0.88888889  0.88888889  1.0
  Na  Na405  1  0.55555556  0.00000000  0.00000000  1.0
  Na  Na406  1  0.55555556  0.00000000  0.11111111  1.0
  Na  Na407  1  0.55555556  0.00000000  0.22222222  1.0
  Na  Na408  1  0.55555556  0.00000000  0.33333333  1.0
  Na  Na409  1  0.55555556  0.00000000  0.44444444  1.0
  Na  Na410  1  0.55555556  0.00000000  0.55555556  1.0
  Na  Na411  1  0.55555556  0.00000000  0.66666667  1.0
  Na  Na412  1  0.55555556  0.00000000  0.77777778  1.0
  Na  Na413  1  0.55555556  0.00000000  0.88888889  1.0
  Na  Na414  1  0.55555556  0.11111111  0.00000000  1.0
  Na  Na415  1  0.55555556  0.11111111  0.11111111  1.0
  Na  Na416  1  0.55555556  0.11111111  0.22222222  1.0
  Na  Na417  1  0.55555556  0.11111111  0.33333333  1.0
  Na  Na418  1  0.55555556  0.11111111  0.44444444  1.0
  Na  Na419  1  0.55555556  0.11111111  0.55555556  1.0
  Na  Na420  1  0.55555556  0.11111111  0.66666667  1.0
  Na  Na421  1  0.55555556  0.11111111  0.77777778  1.0
  Na  Na422  1  0.55555556  0.11111111  0.88888889  1.0
  Na  Na423  1  0.55555556  0.22222222  1.00000000  1.0
  Na  Na424  1  0.55555556  0.22222222  0.11111111  1.0
  Na  Na425  1  0.55555556  0.22222222  0.22222222  1.0
  Na  Na426  1  0.55555556  0.22222222  0.33333333  1.0
  Na  Na427  1  0.55555556  0.22222222  0.44444444  1.0
  Na  Na428  1  0.55555556  0.22222222  0.55555556  1.0
  Na  Na429  1  0.55555556  0.22222222  0.66666667  1.0
  Na  Na430  1  0.55555556  0.22222222  0.77777778  1.0
  Na  Na431  1  0.55555556  0.22222222  0.88888889  1.0
  Na  Na432  1  0.55555556  0.33333333  1.00000000  1.0
  Na  Na433  1  0.55555556  0.33333333  0.11111111  1.0
  Na  Na434  1  0.55555556  0.33333333  0.22222222  1.0
  Na  Na435  1  0.55555556  0.33333333  0.33333333  1.0
  Na  Na436  1  0.55555556  0.33333333  0.44444444  1.0
  Na  Na437  1  0.55555556  0.33333333  0.55555556  1.0
  Na  Na438  1  0.55555556  0.33333333  0.66666667  1.0
  Na  Na439  1  0.55555556  0.33333333  0.77777778  1.0
  Na  Na440  1  0.55555556  0.33333333  0.88888889  1.0
  Na  Na441  1  0.55555556  0.44444444  0.00000000  1.0
  Na  Na442  1  0.55555556  0.44444444  0.11111111  1.0
  Na  Na443  1  0.55555556  0.44444444  0.22222222  1.0
  Na  Na444  1  0.55555556  0.44444444  0.33333333  1.0
  Na  Na445  1  0.55555556  0.44444444  0.44444444  1.0
  Na  Na446  1  0.55555556  0.44444444  0.55555556  1.0
  Na  Na447  1  0.55555556  0.44444444  0.66666667  1.0
  Na  Na448  1  0.55555556  0.44444444  0.77777778  1.0
  Na  Na449  1  0.55555556  0.44444444  0.88888889  1.0
  Na  Na450  1  0.55555556  0.55555556  0.00000000  1.0
  Na  Na451  1  0.55555556  0.55555556  0.11111111  1.0
  Na  Na452  1  0.55555556  0.55555556  0.22222222  1.0
  Na  Na453  1  0.55555556  0.55555556  0.33333333  1.0
  Na  Na454  1  0.55555556  0.55555556  0.44444444  1.0
  Na  Na455  1  0.55555556  0.55555556  0.55555556  1.0
  Na  Na456  1  0.55555556  0.55555556  0.66666667  1.0
  Na  Na457  1  0.55555556  0.55555556  0.77777778  1.0
  Na  Na458  1  0.55555556  0.55555556  0.88888889  1.0
  Na  Na459  1  0.55555556  0.66666667  0.00000000  1.0
  Na  Na460  1  0.55555556  0.66666667  0.11111111  1.0
  Na  Na461  1  0.55555556  0.66666667  0.22222222  1.0
  Na  Na462  1  0.55555556  0.66666667  0.33333333  1.0
  Na  Na463  1  0.55555556  0.66666667  0.44444444  1.0
  Na  Na464  1  0.55555556  0.66666667  0.55555556  1.0
  Na  Na465  1  0.55555556  0.66666667  0.66666667  1.0
  Na  Na466  1  0.55555556  0.66666667  0.77777778  1.0
  Na  Na467  1  0.55555556  0.66666667  0.88888889  1.0
  Na  Na468  1  0.55555556  0.77777778  0.00000000  1.0
  Na  Na469  1  0.55555556  0.77777778  0.11111111  1.0
  Na  Na470  1  0.55555556  0.77777778  0.22222222  1.0
  Na  Na471  1  0.55555556  0.77777778  0.33333333  1.0
  Na  Na472  1  0.55555556  0.77777778  0.44444444  1.0
  Na  Na473  1  0.55555556  0.77777778  0.55555556  1.0
  Na  Na474  1  0.55555556  0.77777778  0.66666667  1.0
  Na  Na475  1  0.55555556  0.77777778  0.77777778  1.0
  Na  Na476  1  0.55555556  0.77777778  0.88888889  1.0
  Na  Na477  1  0.55555556  0.88888889  0.00000000  1.0
  Na  Na478  1  0.55555556  0.88888889  0.11111111  1.0
  Na  Na479  1  0.55555556  0.88888889  0.22222222  1.0
  Na  Na480  1  0.55555556  0.88888889  0.33333333  1.0
  Na  Na481  1  0.55555556  0.88888889  0.44444444  1.0
  Na  Na482  1  0.55555556  0.88888889  0.55555556  1.0
  Na  Na483  1  0.55555556  0.88888889  0.66666667  1.0
  Na  Na484  1  0.55555556  0.88888889  0.77777778  1.0
  Na  Na485  1  0.55555556  0.88888889  0.88888889  1.0
  Na  Na486  1  0.66666667  0.00000000  0.00000000  1.0
  Na  Na487  1  0.66666667  0.00000000  0.11111111  1.0
  Na  Na488  1  0.66666667  0.00000000  0.22222222  1.0
  Na  Na489  1  0.66666667  0.00000000  0.33333333  1.0
  Na  Na490  1  0.66666667  0.00000000  0.44444444  1.0
  Na  Na491  1  0.66666667  0.00000000  0.55555556  1.0
  Na  Na492  1  0.66666667  0.00000000  0.66666667  1.0
  Na  Na493  1  0.66666667  0.00000000  0.77777778  1.0
  Na  Na494  1  0.66666667  0.00000000  0.88888889  1.0
  Na  Na495  1  0.66666667  0.11111111  0.00000000  1.0
  Na  Na496  1  0.66666667  0.11111111  0.11111111  1.0
  Na  Na497  1  0.66666667  0.11111111  0.22222222  1.0
  Na  Na498  1  0.66666667  0.11111111  0.33333333  1.0
  Na  Na499  1  0.66666667  0.11111111  0.44444444  1.0
  Na  Na500  1  0.66666667  0.11111111  0.55555556  1.0
  Na  Na501  1  0.66666667  0.11111111  0.66666667  1.0
  Na  Na502  1  0.66666667  0.11111111  0.77777778  1.0
  Na  Na503  1  0.66666667  0.11111111  0.88888889  1.0
  Na  Na504  1  0.66666667  0.22222222  1.00000000  1.0
  Na  Na505  1  0.66666667  0.22222222  0.11111111  1.0
  Na  Na506  1  0.66666667  0.22222222  0.22222222  1.0
  Na  Na507  1  0.66666667  0.22222222  0.33333333  1.0
  Na  Na508  1  0.66666667  0.22222222  0.44444444  1.0
  Na  Na509  1  0.66666667  0.22222222  0.55555556  1.0
  Na  Na510  1  0.66666667  0.22222222  0.66666667  1.0
  Na  Na511  1  0.66666667  0.22222222  0.77777778  1.0
  Na  Na512  1  0.66666667  0.22222222  0.88888889  1.0
  Na  Na513  1  0.66666667  0.33333333  0.00000000  1.0
  Na  Na514  1  0.66666667  0.33333333  0.11111111  1.0
  Na  Na515  1  0.66666667  0.33333333  0.22222222  1.0
  Na  Na516  1  0.66666667  0.33333333  0.33333333  1.0
  Na  Na517  1  0.66666667  0.33333333  0.44444444  1.0
  Na  Na518  1  0.66666667  0.33333333  0.55555556  1.0
  Na  Na519  1  0.66666667  0.33333333  0.66666667  1.0
  Na  Na520  1  0.66666667  0.33333333  0.77777778  1.0
  Na  Na521  1  0.66666667  0.33333333  0.88888889  1.0
  Na  Na522  1  0.66666667  0.44444444  0.00000000  1.0
  Na  Na523  1  0.66666667  0.44444444  0.11111111  1.0
  Na  Na524  1  0.66666667  0.44444444  0.22222222  1.0
  Na  Na525  1  0.66666667  0.44444444  0.33333333  1.0
  Na  Na526  1  0.66666667  0.44444444  0.44444444  1.0
  Na  Na527  1  0.66666667  0.44444444  0.55555556  1.0
  Na  Na528  1  0.66666667  0.44444444  0.66666667  1.0
  Na  Na529  1  0.66666667  0.44444444  0.77777778  1.0
  Na  Na530  1  0.66666667  0.44444444  0.88888889  1.0
  Na  Na531  1  0.66666667  0.55555556  0.00000000  1.0
  Na  Na532  1  0.66666667  0.55555556  0.11111111  1.0
  Na  Na533  1  0.66666667  0.55555556  0.22222222  1.0
  Na  Na534  1  0.66666667  0.55555556  0.33333333  1.0
  Na  Na535  1  0.66666667  0.55555556  0.44444444  1.0
  Na  Na536  1  0.66666667  0.55555556  0.55555556  1.0
  Na  Na537  1  0.66666667  0.55555556  0.66666667  1.0
  Na  Na538  1  0.66666667  0.55555556  0.77777778  1.0
  Na  Na539  1  0.66666667  0.55555556  0.88888889  1.0
  Na  Na540  1  0.66666667  0.66666667  0.00000000  1.0
  Na  Na541  1  0.66666667  0.66666667  0.11111111  1.0
  Na  Na542  1  0.66666667  0.66666667  0.22222222  1.0
  Na  Na543  1  0.66666667  0.66666667  0.33333333  1.0
  Na  Na544  1  0.66666667  0.66666667  0.44444444  1.0
  Na  Na545  1  0.66666667  0.66666667  0.55555556  1.0
  Na  Na546  1  0.66666667  0.66666667  0.66666667  1.0
  Na  Na547  1  0.66666667  0.66666667  0.77777778  1.0
  Na  Na548  1  0.66666667  0.66666667  0.88888889  1.0
  Na  Na549  1  0.66666667  0.77777778  0.00000000  1.0
  Na  Na550  1  0.66666667  0.77777778  0.11111111  1.0
  Na  Na551  1  0.66666667  0.77777778  0.22222222  1.0
  Na  Na552  1  0.66666667  0.77777778  0.33333333  1.0
  Na  Na553  1  0.66666667  0.77777778  0.44444444  1.0
  Na  Na554  1  0.66666667  0.77777778  0.55555556  1.0
  Na  Na555  1  0.66666667  0.77777778  0.66666667  1.0
  Na  Na556  1  0.66666667  0.77777778  0.77777778  1.0
  Na  Na557  1  0.66666667  0.77777778  0.88888889  1.0
  Na  Na558  1  0.66666667  0.88888889  1.00000000  1.0
  Na  Na559  1  0.66666667  0.88888889  0.11111111  1.0
  Na  Na560  1  0.66666667  0.88888889  0.22222222  1.0
  Na  Na561  1  0.66666667  0.88888889  0.33333333  1.0
  Na  Na562  1  0.66666667  0.88888889  0.44444444  1.0
  Na  Na563  1  0.66666667  0.88888889  0.55555556  1.0
  Na  Na564  1  0.66666667  0.88888889  0.66666667  1.0
  Na  Na565  1  0.66666667  0.88888889  0.77777778  1.0
  Na  Na566  1  0.66666667  0.88888889  0.88888889  1.0
  Na  Na567  1  0.77777778  0.00000000  1.00000000  1.0
  Na  Na568  1  0.77777778  0.00000000  0.11111111  1.0
  Na  Na569  1  0.77777778  0.00000000  0.22222222  1.0
  Na  Na570  1  0.77777778  0.00000000  0.33333333  1.0
  Na  Na571  1  0.77777778  0.00000000  0.44444444  1.0
  Na  Na572  1  0.77777778  0.00000000  0.55555556  1.0
  Na  Na573  1  0.77777778  0.00000000  0.66666667  1.0
  Na  Na574  1  0.77777778  0.00000000  0.77777778  1.0
  Na  Na575  1  0.77777778  0.00000000  0.88888889  1.0
  Na  Na576  1  0.77777778  0.11111111  0.00000000  1.0
  Na  Na577  1  0.77777778  0.11111111  0.11111111  1.0
  Na  Na578  1  0.77777778  0.11111111  0.22222222  1.0
  Na  Na579  1  0.77777778  0.11111111  0.33333333  1.0
  Na  Na580  1  0.77777778  0.11111111  0.44444444  1.0
  Na  Na581  1  0.77777778  0.11111111  0.55555556  1.0
  Na  Na582  1  0.77777778  0.11111111  0.66666667  1.0
  Na  Na583  1  0.77777778  0.11111111  0.77777778  1.0
  Na  Na584  1  0.77777778  0.11111111  0.88888889  1.0
  Na  Na585  1  0.77777778  0.22222222  1.00000000  1.0
  Na  Na586  1  0.77777778  0.22222222  0.11111111  1.0
  Na  Na587  1  0.77777778  0.22222222  0.22222222  1.0
  Na  Na588  1  0.77777778  0.22222222  0.33333333  1.0
  Na  Na589  1  0.77777778  0.22222222  0.44444444  1.0
  Na  Na590  1  0.77777778  0.22222222  0.55555556  1.0
  Na  Na591  1  0.77777778  0.22222222  0.66666667  1.0
  Na  Na592  1  0.77777778  0.22222222  0.77777778  1.0
  Na  Na593  1  0.77777778  0.22222222  0.88888889  1.0
  Na  Na594  1  0.77777778  0.33333333  0.00000000  1.0
  Na  Na595  1  0.77777778  0.33333333  0.11111111  1.0
  Na  Na596  1  0.77777778  0.33333333  0.22222222  1.0
  Na  Na597  1  0.77777778  0.33333333  0.33333333  1.0
  Na  Na598  1  0.77777778  0.33333333  0.44444444  1.0
  Na  Na599  1  0.77777778  0.33333333  0.55555556  1.0
  Na  Na600  1  0.77777778  0.33333333  0.66666667  1.0
  Na  Na601  1  0.77777778  0.33333333  0.77777778  1.0
  Na  Na602  1  0.77777778  0.33333333  0.88888889  1.0
  Na  Na603  1  0.77777778  0.44444444  0.00000000  1.0
  Na  Na604  1  0.77777778  0.44444444  0.11111111  1.0
  Na  Na605  1  0.77777778  0.44444444  0.22222222  1.0
  Na  Na606  1  0.77777778  0.44444444  0.33333333  1.0
  Na  Na607  1  0.77777778  0.44444444  0.44444444  1.0
  Na  Na608  1  0.77777778  0.44444444  0.55555556  1.0
  Na  Na609  1  0.77777778  0.44444444  0.66666667  1.0
  Na  Na610  1  0.77777778  0.44444444  0.77777778  1.0
  Na  Na611  1  0.77777778  0.44444444  0.88888889  1.0
  Na  Na612  1  0.77777778  0.55555556  0.00000000  1.0
  Na  Na613  1  0.77777778  0.55555556  0.11111111  1.0
  Na  Na614  1  0.77777778  0.55555556  0.22222222  1.0
  Na  Na615  1  0.77777778  0.55555556  0.33333333  1.0
  Na  Na616  1  0.77777778  0.55555556  0.44444444  1.0
  Na  Na617  1  0.77777778  0.55555556  0.55555556  1.0
  Na  Na618  1  0.77777778  0.55555556  0.66666667  1.0
  Na  Na619  1  0.77777778  0.55555556  0.77777778  1.0
  Na  Na620  1  0.77777778  0.55555556  0.88888889  1.0
  Na  Na621  1  0.77777778  0.66666667  1.00000000  1.0
  Na  Na622  1  0.77777778  0.66666667  0.11111111  1.0
  Na  Na623  1  0.77777778  0.66666667  0.22222222  1.0
  Na  Na624  1  0.77777778  0.66666667  0.33333333  1.0
  Na  Na625  1  0.77777778  0.66666667  0.44444444  1.0
  Na  Na626  1  0.77777778  0.66666667  0.55555556  1.0
  Na  Na627  1  0.77777778  0.66666667  0.66666667  1.0
  Na  Na628  1  0.77777778  0.66666667  0.77777778  1.0
  Na  Na629  1  0.77777778  0.66666667  0.88888889  1.0
  Na  Na630  1  0.77777778  0.77777778  1.00000000  1.0
  Na  Na631  1  0.77777778  0.77777778  0.11111111  1.0
  Na  Na632  1  0.77777778  0.77777778  0.22222222  1.0
  Na  Na633  1  0.77777778  0.77777778  0.33333333  1.0
  Na  Na634  1  0.77777778  0.77777778  0.44444444  1.0
  Na  Na635  1  0.77777778  0.77777778  0.55555556  1.0
  Na  Na636  1  0.77777778  0.77777778  0.66666667  1.0
  Na  Na637  1  0.77777778  0.77777778  0.77777778  1.0
  Na  Na638  1  0.77777778  0.77777778  0.88888889  1.0
  Na  Na639  1  0.77777778  0.88888889  0.00000000  1.0
  Na  Na640  1  0.77777778  0.88888889  0.11111111  1.0
  Na  Na641  1  0.77777778  0.88888889  0.22222222  1.0
  Na  Na642  1  0.77777778  0.88888889  0.33333333  1.0
  Na  Na643  1  0.77777778  0.88888889  0.44444444  1.0
  Na  Na644  1  0.77777778  0.88888889  0.55555556  1.0
  Na  Na645  1  0.77777778  0.88888889  0.66666667  1.0
  Na  Na646  1  0.77777778  0.88888889  0.77777778  1.0
  Na  Na647  1  0.77777778  0.88888889  0.88888889  1.0
  Na  Na648  1  0.88888889  0.00000000  1.00000000  1.0
  Na  Na649  1  0.88888889  0.00000000  0.11111111  1.0
  Na  Na650  1  0.88888889  0.00000000  0.22222222  1.0
  Na  Na651  1  0.88888889  0.00000000  0.33333333  1.0
  Na  Na652  1  0.88888889  0.00000000  0.44444444  1.0
  Na  Na653  1  0.88888889  0.00000000  0.55555556  1.0
  Na  Na654  1  0.88888889  0.00000000  0.66666667  1.0
  Na  Na655  1  0.88888889  0.00000000  0.77777778  1.0
  Na  Na656  1  0.88888889  0.00000000  0.88888889  1.0
  Na  Na657  1  0.88888889  0.11111111  0.00000000  1.0
  Na  Na658  1  0.88888889  0.11111111  0.11111111  1.0
  Na  Na659  1  0.88888889  0.11111111  0.22222222  1.0
  Na  Na660  1  0.88888889  0.11111111  0.33333333  1.0
  Na  Na661  1  0.88888889  0.11111111  0.44444444  1.0
  Na  Na662  1  0.88888889  0.11111111  0.55555556  1.0
  Na  Na663  1  0.88888889  0.11111111  0.66666667  1.0
  Na  Na664  1  0.88888889  0.11111111  0.77777778  1.0
  Na  Na665  1  0.88888889  0.11111111  0.88888889  1.0
  Na  Na666  1  0.88888889  0.22222222  1.00000000  1.0
  Na  Na667  1  0.88888889  0.22222222  0.11111111  1.0
  Na  Na668  1  0.88888889  0.22222222  0.22222222  1.0
  Na  Na669  1  0.88888889  0.22222222  0.33333333  1.0
  Na  Na670  1  0.88888889  0.22222222  0.44444444  1.0
  Na  Na671  1  0.88888889  0.22222222  0.55555556  1.0
  Na  Na672  1  0.88888889  0.22222222  0.66666667  1.0
  Na  Na673  1  0.88888889  0.22222222  0.77777778  1.0
  Na  Na674  1  0.88888889  0.22222222  0.88888889  1.0
  Na  Na675  1  0.88888889  0.33333333  0.00000000  1.0
  Na  Na676  1  0.88888889  0.33333333  0.11111111  1.0
  Na  Na677  1  0.88888889  0.33333333  0.22222222  1.0
  Na  Na678  1  0.88888889  0.33333333  0.33333333  1.0
  Na  Na679  1  0.88888889  0.33333333  0.44444444  1.0
  Na  Na680  1  0.88888889  0.33333333  0.55555556  1.0
  Na  Na681  1  0.88888889  0.33333333  0.66666667  1.0
  Na  Na682  1  0.88888889  0.33333333  0.77777778  1.0
  Na  Na683  1  0.88888889  0.33333333  0.88888889  1.0
  Na  Na684  1  0.88888889  0.44444444  1.00000000  1.0
  Na  Na685  1  0.88888889  0.44444444  0.11111111  1.0
  Na  Na686  1  0.88888889  0.44444444  0.22222222  1.0
  Na  Na687  1  0.88888889  0.44444444  0.33333333  1.0
  Na  Na688  1  0.88888889  0.44444444  0.44444444  1.0
  Na  Na689  1  0.88888889  0.44444444  0.55555556  1.0
  Na  Na690  1  0.88888889  0.44444444  0.66666667  1.0
  Na  Na691  1  0.88888889  0.44444444  0.77777778  1.0
  Na  Na692  1  0.88888889  0.44444444  0.88888889  1.0
  Na  Na693  1  0.88888889  0.55555556  0.00000000  1.0
  Na  Na694  1  0.88888889  0.55555556  0.11111111  1.0
  Na  Na695  1  0.88888889  0.55555556  0.22222222  1.0
  Na  Na696  1  0.88888889  0.55555556  0.33333333  1.0
  Na  Na697  1  0.88888889  0.55555556  0.44444444  1.0
  Na  Na698  1  0.88888889  0.55555556  0.55555556  1.0
  Na  Na699  1  0.88888889  0.55555556  0.66666667  1.0
  Na  Na700  1  0.88888889  0.55555556  0.77777778  1.0
  Na  Na701  1  0.88888889  0.55555556  0.88888889  1.0
  Na  Na702  1  0.88888889  0.66666667  1.00000000  1.0
  Na  Na703  1  0.88888889  0.66666667  0.11111111  1.0
  Na  Na704  1  0.88888889  0.66666667  0.22222222  1.0
  Na  Na705  1  0.88888889  0.66666667  0.33333333  1.0
  Na  Na706  1  0.88888889  0.66666667  0.44444444  1.0
  Na  Na707  1  0.88888889  0.66666667  0.55555556  1.0
  Na  Na708  1  0.88888889  0.66666667  0.66666667  1.0
  Na  Na709  1  0.88888889  0.66666667  0.77777778  1.0
  Na  Na710  1  0.88888889  0.66666667  0.88888889  1.0
  Na  Na711  1  0.88888889  0.77777778  1.00000000  1.0
  Na  Na712  1  0.88888889  0.77777778  0.11111111  1.0
  Na  Na713  1  0.88888889  0.77777778  0.22222222  1.0
  Na  Na714  1  0.88888889  0.77777778  0.33333333  1.0
  Na  Na715  1  0.88888889  0.77777778  0.44444444  1.0
  Na  Na716  1  0.88888889  0.77777778  0.55555556  1.0
  Na  Na717  1  0.88888889  0.77777778  0.66666667  1.0
  Na  Na718  1  0.88888889  0.77777778  0.77777778  1.0
  Na  Na719  1  0.88888889  0.77777778  0.88888889  1.0
  Na  Na720  1  0.88888889  0.88888889  0.00000000  1.0
  Na  Na721  1  0.88888889  0.88888889  0.11111111  1.0
  Na  Na722  1  0.88888889  0.88888889  0.22222222  1.0
  Na  Na723  1  0.88888889  0.88888889  0.33333333  1.0
  Na  Na724  1  0.88888889  0.88888889  0.44444444  1.0
  Na  Na725  1  0.88888889  0.88888889  0.55555556  1.0
  Na  Na726  1  0.88888889  0.88888889  0.66666667  1.0
  Na  Na727  1  0.88888889  0.88888889  0.77777778  1.0
  Na  Na728  1  0.88888889  0.88888889  0.88888889  1.0
  Cl  Cl729  1  0.05555556  0.05555556  0.05555556  1.0
  Cl  Cl730  1  0.05555556  0.05555556  0.16666667  1.0
  Cl  Cl731  1  0.05555556  0.05555556  0.27777778  1.0
  Cl  Cl732  1  0.05555556  0.05555556  0.38888889  1.0
  Cl  Cl733  1  0.05555556  0.05555556  0.50000000  1.0
  Cl  Cl734  1  0.05555556  0.05555556  0.61111111  1.0
  Cl  Cl735  1  0.05555556  0.05555556  0.72222222  1.0
  Cl  Cl736  1  0.05555556  0.05555556  0.83333333  1.0
  Cl  Cl737  1  0.05555556  0.05555556  0.94444444  1.0
  Cl  Cl738  1  0.05555556  0.16666667  0.05555556  1.0
  Cl  Cl739  1  0.05555556  0.16666667  0.16666667  1.0
  Cl  Cl740  1  0.05555556  0.16666667  0.27777778  1.0
  Cl  Cl741  1  0.05555556  0.16666667  0.38888889  1.0
  Cl  Cl742  1  0.05555556  0.16666667  0.50000000  1.0
  Cl  Cl743  1  0.05555556  0.16666667  0.61111111  1.0
  Cl  Cl744  1  0.05555556  0.16666667  0.72222222  1.0
  Cl  Cl745  1  0.05555556  0.16666667  0.83333333  1.0
  Cl  Cl746  1  0.05555556  0.16666667  0.94444444  1.0
  Cl  Cl747  1  0.05555556  0.27777778  0.05555556  1.0
  Cl  Cl748  1  0.05555556  0.27777778  0.16666667  1.0
  Cl  Cl749  1  0.05555556  0.27777778  0.27777778  1.0
  Cl  Cl750  1  0.05555556  0.27777778  0.38888889  1.0
  Cl  Cl751  1  0.05555556  0.27777778  0.50000000  1.0
  Cl  Cl752  1  0.05555556  0.27777778  0.61111111  1.0
  Cl  Cl753  1  0.05555556  0.27777778  0.72222222  1.0
  Cl  Cl754  1  0.05555556  0.27777778  0.83333333  1.0
  Cl  Cl755  1  0.05555556  0.27777778  0.94444444  1.0
  Cl  Cl756  1  0.05555556  0.38888889  0.05555556  1.0
  Cl  Cl757  1  0.05555556  0.38888889  0.16666667  1.0
  Cl  Cl758  1  0.05555556  0.38888889  0.27777778  1.0
  Cl  Cl759  1  0.05555556  0.38888889  0.38888889  1.0
  Cl  Cl760  1  0.05555556  0.38888889  0.50000000  1.0
  Cl  Cl761  1  0.05555556  0.38888889  0.61111111  1.0
  Cl  Cl762  1  0.05555556  0.38888889  0.72222222  1.0
  Cl  Cl763  1  0.05555556  0.38888889  0.83333333  1.0
  Cl  Cl764  1  0.05555556  0.38888889  0.94444444  1.0
  Cl  Cl765  1  0.05555556  0.50000000  0.05555556  1.0
  Cl  Cl766  1  0.05555556  0.50000000  0.16666667  1.0
  Cl  Cl767  1  0.05555556  0.50000000  0.27777778  1.0
  Cl  Cl768  1  0.05555556  0.50000000  0.38888889  1.0
  Cl  Cl769  1  0.05555556  0.50000000  0.50000000  1.0
  Cl  Cl770  1  0.05555556  0.50000000  0.61111111  1.0
  Cl  Cl771  1  0.05555556  0.50000000  0.72222222  1.0
  Cl  Cl772  1  0.05555556  0.50000000  0.83333333  1.0
  Cl  Cl773  1  0.05555556  0.50000000  0.94444444  1.0
  Cl  Cl774  1  0.05555556  0.61111111  0.05555556  1.0
  Cl  Cl775  1  0.05555556  0.61111111  0.16666667  1.0
  Cl  Cl776  1  0.05555556  0.61111111  0.27777778  1.0
  Cl  Cl777  1  0.05555556  0.61111111  0.38888889  1.0
  Cl  Cl778  1  0.05555556  0.61111111  0.50000000  1.0
  Cl  Cl779  1  0.05555556  0.61111111  0.61111111  1.0
  Cl  Cl780  1  0.05555556  0.61111111  0.72222222  1.0
  Cl  Cl781  1  0.05555556  0.61111111  0.83333333  1.0
  Cl  Cl782  1  0.05555556  0.61111111  0.94444444  1.0
  Cl  Cl783  1  0.05555556  0.72222222  0.05555556  1.0
  Cl  Cl784  1  0.05555556  0.72222222  0.16666667  1.0
  Cl  Cl785  1  0.05555556  0.72222222  0.27777778  1.0
  Cl  Cl786  1  0.05555556  0.72222222  0.38888889  1.0
  Cl  Cl787  1  0.05555556  0.72222222  0.50000000  1.0
  Cl  Cl788  1  0.05555556  0.72222222  0.61111111  1.0
  Cl  Cl789  1  0.05555556  0.72222222  0.72222222  1.0
  Cl  Cl790  1  0.05555556  0.72222222  0.83333333  1.0
  Cl  Cl791  1  0.05555556  0.72222222  0.94444444  1.0
  Cl  Cl792  1  0.05555556  0.83333333  0.05555556  1.0
  Cl  Cl793  1  0.05555556  0.83333333  0.16666667  1.0
  Cl  Cl794  1  0.05555556  0.83333333  0.27777778  1.0
  Cl  Cl795  1  0.05555556  0.83333333  0.38888889  1.0
  Cl  Cl796  1  0.05555556  0.83333333  0.50000000  1.0
  Cl  Cl797  1  0.05555556  0.83333333  0.61111111  1.0
  Cl  Cl798  1  0.05555556  0.83333333  0.72222222  1.0
  Cl  Cl799  1  0.05555556  0.83333333  0.83333333  1.0
  Cl  Cl800  1  0.05555556  0.83333333  0.94444444  1.0
  Cl  Cl801  1  0.05555556  0.94444444  0.05555556  1.0
  Cl  Cl802  1  0.05555556  0.94444444  0.16666667  1.0
  Cl  Cl803  1  0.05555556  0.94444444  0.27777778  1.0
  Cl  Cl804  1  0.05555556  0.94444444  0.38888889  1.0
  Cl  Cl805  1  0.05555556  0.94444444  0.50000000  1.0
  Cl  Cl806  1  0.05555556  0.94444444  0.61111111  1.0
  Cl  Cl807  1  0.05555556  0.94444444  0.72222222  1.0
  Cl  Cl808  1  0.05555556  0.94444444  0.83333333  1.0
  Cl  Cl809  1  0.05555556  0.94444444  0.94444444  1.0
  Cl  Cl810  1  0.16666667  0.05555556  0.05555556  1.0
  Cl  Cl811  1  0.16666667  0.05555556  0.16666667  1.0
  Cl  Cl812  1  0.16666667  0.05555556  0.27777778  1.0
  Cl  Cl813  1  0.16666667  0.05555556  0.38888889  1.0
  Cl  Cl814  1  0.16666667  0.05555556  0.50000000  1.0
  Cl  Cl815  1  0.16666667  0.05555556  0.61111111  1.0
  Cl  Cl816  1  0.16666667  0.05555556  0.72222222  1.0
  Cl  Cl817  1  0.16666667  0.05555556  0.83333333  1.0
  Cl  Cl818  1  0.16666667  0.05555556  0.94444444  1.0
  Cl  Cl819  1  0.16666667  0.16666667  0.05555556  1.0
  Cl  Cl820  1  0.16666667  0.16666667  0.16666667  1.0
  Cl  Cl821  1  0.16666667  0.16666667  0.27777778  1.0
  Cl  Cl822  1  0.16666667  0.16666667  0.38888889  1.0
  Cl  Cl823  1  0.16666667  0.16666667  0.50000000  1.0
  Cl  Cl824  1  0.16666667  0.16666667  0.61111111  1.0
  Cl  Cl825  1  0.16666667  0.16666667  0.72222222  1.0
  Cl  Cl826  1  0.16666667  0.16666667  0.83333333  1.0
  Cl  Cl827  1  0.16666667  0.16666667  0.94444444  1.0
  Cl  Cl828  1  0.16666667  0.27777778  0.05555556  1.0
  Cl  Cl829  1  0.16666667  0.27777778  0.16666667  1.0
  Cl  Cl830  1  0.16666667  0.27777778  0.27777778  1.0
  Cl  Cl831  1  0.16666667  0.27777778  0.38888889  1.0
  Cl  Cl832  1  0.16666667  0.27777778  0.50000000  1.0
  Cl  Cl833  1  0.16666667  0.27777778  0.61111111  1.0
  Cl  Cl834  1  0.16666667  0.27777778  0.72222222  1.0
  Cl  Cl835  1  0.16666667  0.27777778  0.83333333  1.0
  Cl  Cl836  1  0.16666667  0.27777778  0.94444444  1.0
  Cl  Cl837  1  0.16666667  0.38888889  0.05555556  1.0
  Cl  Cl838  1  0.16666667  0.38888889  0.16666667  1.0
  Cl  Cl839  1  0.16666667  0.38888889  0.27777778  1.0
  Cl  Cl840  1  0.16666667  0.38888889  0.38888889  1.0
  Cl  Cl841  1  0.16666667  0.38888889  0.50000000  1.0
  Cl  Cl842  1  0.16666667  0.38888889  0.61111111  1.0
  Cl  Cl843  1  0.16666667  0.38888889  0.72222222  1.0
  Cl  Cl844  1  0.16666667  0.38888889  0.83333333  1.0
  Cl  Cl845  1  0.16666667  0.38888889  0.94444444  1.0
  Cl  Cl846  1  0.16666667  0.50000000  0.05555556  1.0
  Cl  Cl847  1  0.16666667  0.50000000  0.16666667  1.0
  Cl  Cl848  1  0.16666667  0.50000000  0.27777778  1.0
  Cl  Cl849  1  0.16666667  0.50000000  0.38888889  1.0
  Cl  Cl850  1  0.16666667  0.50000000  0.50000000  1.0
  Cl  Cl851  1  0.16666667  0.50000000  0.61111111  1.0
  Cl  Cl852  1  0.16666667  0.50000000  0.72222222  1.0
  Cl  Cl853  1  0.16666667  0.50000000  0.83333333  1.0
  Cl  Cl854  1  0.16666667  0.50000000  0.94444444  1.0
  Cl  Cl855  1  0.16666667  0.61111111  0.05555556  1.0
  Cl  Cl856  1  0.16666667  0.61111111  0.16666667  1.0
  Cl  Cl857  1  0.16666667  0.61111111  0.27777778  1.0
  Cl  Cl858  1  0.16666667  0.61111111  0.38888889  1.0
  Cl  Cl859  1  0.16666667  0.61111111  0.50000000  1.0
  Cl  Cl860  1  0.16666667  0.61111111  0.61111111  1.0
  Cl  Cl861  1  0.16666667  0.61111111  0.72222222  1.0
  Cl  Cl862  1  0.16666667  0.61111111  0.83333333  1.0
  Cl  Cl863  1  0.16666667  0.61111111  0.94444444  1.0
  Cl  Cl864  1  0.16666667  0.72222222  0.05555556  1.0
  Cl  Cl865  1  0.16666667  0.72222222  0.16666667  1.0
  Cl  Cl866  1  0.16666667  0.72222222  0.27777778  1.0
  Cl  Cl867  1  0.16666667  0.72222222  0.38888889  1.0
  Cl  Cl868  1  0.16666667  0.72222222  0.50000000  1.0
  Cl  Cl869  1  0.16666667  0.72222222  0.61111111  1.0
  Cl  Cl870  1  0.16666667  0.72222222  0.72222222  1.0
  Cl  Cl871  1  0.16666667  0.72222222  0.83333333  1.0
  Cl  Cl872  1  0.16666667  0.72222222  0.94444444  1.0
  Cl  Cl873  1  0.16666667  0.83333333  0.05555556  1.0
  Cl  Cl874  1  0.16666667  0.83333333  0.16666667  1.0
  Cl  Cl875  1  0.16666667  0.83333333  0.27777778  1.0
  Cl  Cl876  1  0.16666667  0.83333333  0.38888889  1.0
  Cl  Cl877  1  0.16666667  0.83333333  0.50000000  1.0
  Cl  Cl878  1  0.16666667  0.83333333  0.61111111  1.0
  Cl  Cl879  1  0.16666667  0.83333333  0.72222222  1.0
  Cl  Cl880  1  0.16666667  0.83333333  0.83333333  1.0
  Cl  Cl881  1  0.16666667  0.83333333  0.94444444  1.0
  Cl  Cl882  1  0.16666667  0.94444444  0.05555556  1.0
  Cl  Cl883  1  0.16666667  0.94444444  0.16666667  1.0
  Cl  Cl884  1  0.16666667  0.94444444  0.27777778  1.0
  Cl  Cl885  1  0.16666667  0.94444444  0.38888889  1.0
  Cl  Cl886  1  0.16666667  0.94444444  0.50000000  1.0
  Cl  Cl887  1  0.16666667  0.94444444  0.61111111  1.0
  Cl  Cl888  1  0.16666667  0.94444444  0.72222222  1.0
  Cl  Cl889  1  0.16666667  0.94444444  0.83333333  1.0
  Cl  Cl890  1  0.16666667  0.94444444  0.94444444  1.0
  Cl  Cl891  1  0.27777778  0.05555556  0.05555556  1.0
  Cl  Cl892  1  0.27777778  0.05555556  0.16666667  1.0
  Cl  Cl893  1  0.27777778  0.05555556  0.27777778  1.0
  Cl  Cl894  1  0.27777778  0.05555556  0.38888889  1.0
  Cl  Cl895  1  0.27777778  0.05555556  0.50000000  1.0
  Cl  Cl896  1  0.27777778  0.05555556  0.61111111  1.0
  Cl  Cl897  1  0.27777778  0.05555556  0.72222222  1.0
  Cl  Cl898  1  0.27777778  0.05555556  0.83333333  1.0
  Cl  Cl899  1  0.27777778  0.05555556  0.94444444  1.0
  Cl  Cl900  1  0.27777778  0.16666667  0.05555556  1.0
  Cl  Cl901  1  0.27777778  0.16666667  0.16666667  1.0
  Cl  Cl902  1  0.27777778  0.16666667  0.27777778  1.0
  Cl  Cl903  1  0.27777778  0.16666667  0.38888889  1.0
  Cl  Cl904  1  0.27777778  0.16666667  0.50000000  1.0
  Cl  Cl905  1  0.27777778  0.16666667  0.61111111  1.0
  Cl  Cl906  1  0.27777778  0.16666667  0.72222222  1.0
  Cl  Cl907  1  0.27777778  0.16666667  0.83333333  1.0
  Cl  Cl908  1  0.27777778  0.16666667  0.94444444  1.0
  Cl  Cl909  1  0.27777778  0.27777778  0.05555556  1.0
  Cl  Cl910  1  0.27777778  0.27777778  0.16666667  1.0
  Cl  Cl911  1  0.27777778  0.27777778  0.27777778  1.0
  Cl  Cl912  1  0.27777778  0.27777778  0.38888889  1.0
  Cl  Cl913  1  0.27777778  0.27777778  0.50000000  1.0
  Cl  Cl914  1  0.27777778  0.27777778  0.61111111  1.0
  Cl  Cl915  1  0.27777778  0.27777778  0.72222222  1.0
  Cl  Cl916  1  0.27777778  0.27777778  0.83333333  1.0
  Cl  Cl917  1  0.27777778  0.27777778  0.94444444  1.0
  Cl  Cl918  1  0.27777778  0.38888889  0.05555556  1.0
  Cl  Cl919  1  0.27777778  0.38888889  0.16666667  1.0
  Cl  Cl920  1  0.27777778  0.38888889  0.27777778  1.0
  Cl  Cl921  1  0.27777778  0.38888889  0.38888889  1.0
  Cl  Cl922  1  0.27777778  0.38888889  0.50000000  1.0
  Cl  Cl923  1  0.27777778  0.38888889  0.61111111  1.0
  Cl  Cl924  1  0.27777778  0.38888889  0.72222222  1.0
  Cl  Cl925  1  0.27777778  0.38888889  0.83333333  1.0
  Cl  Cl926  1  0.27777778  0.38888889  0.94444444  1.0
  Cl  Cl927  1  0.27777778  0.50000000  0.05555556  1.0
  Cl  Cl928  1  0.27777778  0.50000000  0.16666667  1.0
  Cl  Cl929  1  0.27777778  0.50000000  0.27777778  1.0
  Cl  Cl930  1  0.27777778  0.50000000  0.38888889  1.0
  Cl  Cl931  1  0.27777778  0.50000000  0.50000000  1.0
  Cl  Cl932  1  0.27777778  0.50000000  0.61111111  1.0
  Cl  Cl933  1  0.27777778  0.50000000  0.72222222  1.0
  Cl  Cl934  1  0.27777778  0.50000000  0.83333333  1.0
  Cl  Cl935  1  0.27777778  0.50000000  0.94444444  1.0
  Cl  Cl936  1  0.27777778  0.61111111  0.05555556  1.0
  Cl  Cl937  1  0.27777778  0.61111111  0.16666667  1.0
  Cl  Cl938  1  0.27777778  0.61111111  0.27777778  1.0
  Cl  Cl939  1  0.27777778  0.61111111  0.38888889  1.0
  Cl  Cl940  1  0.27777778  0.61111111  0.50000000  1.0
  Cl  Cl941  1  0.27777778  0.61111111  0.61111111  1.0
  Cl  Cl942  1  0.27777778  0.61111111  0.72222222  1.0
  Cl  Cl943  1  0.27777778  0.61111111  0.83333333  1.0
  Cl  Cl944  1  0.27777778  0.61111111  0.94444444  1.0
  Cl  Cl945  1  0.27777778  0.72222222  0.05555556  1.0
  Cl  Cl946  1  0.27777778  0.72222222  0.16666667  1.0
  Cl  Cl947  1  0.27777778  0.72222222  0.27777778  1.0
  Cl  Cl948  1  0.27777778  0.72222222  0.38888889  1.0
  Cl  Cl949  1  0.27777778  0.72222222  0.50000000  1.0
  Cl  Cl950  1  0.27777778  0.72222222  0.61111111  1.0
  Cl  Cl951  1  0.27777778  0.72222222  0.72222222  1.0
  Cl  Cl952  1  0.27777778  0.72222222  0.83333333  1.0
  Cl  Cl953  1  0.27777778  0.72222222  0.94444444  1.0
  Cl  Cl954  1  0.27777778  0.83333333  0.05555556  1.0
  Cl  Cl955  1  0.27777778  0.83333333  0.16666667  1.0
  Cl  Cl956  1  0.27777778  0.83333333  0.27777778  1.0
  Cl  Cl957  1  0.27777778  0.83333333  0.38888889  1.0
  Cl  Cl958  1  0.27777778  0.83333333  0.50000000  1.0
  Cl  Cl959  1  0.27777778  0.83333333  0.61111111  1.0
  Cl  Cl960  1  0.27777778  0.83333333  0.72222222  1.0
  Cl  Cl961  1  0.27777778  0.83333333  0.83333333  1.0
  Cl  Cl962  1  0.27777778  0.83333333  0.94444444  1.0
  Cl  Cl963  1  0.27777778  0.94444444  0.05555556  1.0
  Cl  Cl964  1  0.27777778  0.94444444  0.16666667  1.0
  Cl  Cl965  1  0.27777778  0.94444444  0.27777778  1.0
  Cl  Cl966  1  0.27777778  0.94444444  0.38888889  1.0
  Cl  Cl967  1  0.27777778  0.94444444  0.50000000  1.0
  Cl  Cl968  1  0.27777778  0.94444444  0.61111111  1.0
  Cl  Cl969  1  0.27777778  0.94444444  0.72222222  1.0
  Cl  Cl970  1  0.27777778  0.94444444  0.83333333  1.0
  Cl  Cl971  1  0.27777778  0.94444444  0.94444444  1.0
  Cl  Cl972  1  0.38888889  0.05555556  0.05555556  1.0
  Cl  Cl973  1  0.38888889  0.05555556  0.16666667  1.0
  Cl  Cl974  1  0.38888889  0.05555556  0.27777778  1.0
  Cl  Cl975  1  0.38888889  0.05555556  0.38888889  1.0
  Cl  Cl976  1  0.38888889  0.05555556  0.50000000  1.0
  Cl  Cl977  1  0.38888889  0.05555556  0.61111111  1.0
  Cl  Cl978  1  0.38888889  0.05555556  0.72222222  1.0
  Cl  Cl979  1  0.38888889  0.05555556  0.83333333  1.0
  Cl  Cl980  1  0.38888889  0.05555556  0.94444444  1.0
  Cl  Cl981  1  0.38888889  0.16666667  0.05555556  1.0
  Cl  Cl982  1  0.38888889  0.16666667  0.16666667  1.0
  Cl  Cl983  1  0.38888889  0.16666667  0.27777778  1.0
  Cl  Cl984  1  0.38888889  0.16666667  0.38888889  1.0
  Cl  Cl985  1  0.38888889  0.16666667  0.50000000  1.0
  Cl  Cl986  1  0.38888889  0.16666667  0.61111111  1.0
  Cl  Cl987  1  0.38888889  0.16666667  0.72222222  1.0
  Cl  Cl988  1  0.38888889  0.16666667  0.83333333  1.0
  Cl  Cl989  1  0.38888889  0.16666667  0.94444444  1.0
  Cl  Cl990  1  0.38888889  0.27777778  0.05555556  1.0
  Cl  Cl991  1  0.38888889  0.27777778  0.16666667  1.0
  Cl  Cl992  1  0.38888889  0.27777778  0.27777778  1.0
  Cl  Cl993  1  0.38888889  0.27777778  0.38888889  1.0
  Cl  Cl994  1  0.38888889  0.27777778  0.50000000  1.0
  Cl  Cl995  1  0.38888889  0.27777778  0.61111111  1.0
  Cl  Cl996  1  0.38888889  0.27777778  0.72222222  1.0
  Cl  Cl997  1  0.38888889  0.27777778  0.83333333  1.0
  Cl  Cl998  1  0.38888889  0.27777778  0.94444444  1.0
  Cl  Cl999  1  0.38888889  0.38888889  0.05555556  1.0
  Cl  Cl1000  1  0.38888889  0.38888889  0.16666667  1.0
  Cl  Cl1001  1  0.38888889  0.38888889  0.27777778  1.0
  Cl  Cl1002  1  0.38888889  0.38888889  0.38888889  1.0
  Cl  Cl1003  1  0.38888889  0.38888889  0.50000000  1.0
  Cl  Cl1004  1  0.38888889  0.38888889  0.61111111  1.0
  Cl  Cl1005  1  0.38888889  0.38888889  0.72222222  1.0
  Cl  Cl1006  1  0.38888889  0.38888889  0.83333333  1.0
  Cl  Cl1007  1  0.38888889  0.38888889  0.94444444  1.0
  Cl  Cl1008  1  0.38888889  0.50000000  0.05555556  1.0
  Cl  Cl1009  1  0.38888889  0.50000000  0.16666667  1.0
  Cl  Cl1010  1  0.38888889  0.50000000  0.27777778  1.0
  Cl  Cl1011  1  0.38888889  0.50000000  0.38888889  1.0
  Cl  Cl1012  1  0.38888889  0.50000000  0.50000000  1.0
  Cl  Cl1013  1  0.38888889  0.50000000  0.61111111  1.0
  Cl  Cl1014  1  0.38888889  0.50000000  0.72222222  1.0
  Cl  Cl1015  1  0.38888889  0.50000000  0.83333333  1.0
  Cl  Cl1016  1  0.38888889  0.50000000  0.94444444  1.0
  Cl  Cl1017  1  0.38888889  0.61111111  0.05555556  1.0
  Cl  Cl1018  1  0.38888889  0.61111111  0.16666667  1.0
  Cl  Cl1019  1  0.38888889  0.61111111  0.27777778  1.0
  Cl  Cl1020  1  0.38888889  0.61111111  0.38888889  1.0
  Cl  Cl1021  1  0.38888889  0.61111111  0.50000000  1.0
  Cl  Cl1022  1  0.38888889  0.61111111  0.61111111  1.0
  Cl  Cl1023  1  0.38888889  0.61111111  0.72222222  1.0
  Cl  Cl1024  1  0.38888889  0.61111111  0.83333333  1.0
  Cl  Cl1025  1  0.38888889  0.61111111  0.94444444  1.0
  Cl  Cl1026  1  0.38888889  0.72222222  0.05555556  1.0
  Cl  Cl1027  1  0.38888889  0.72222222  0.16666667  1.0
  Cl  Cl1028  1  0.38888889  0.72222222  0.27777778  1.0
  Cl  Cl1029  1  0.38888889  0.72222222  0.38888889  1.0
  Cl  Cl1030  1  0.38888889  0.72222222  0.50000000  1.0
  Cl  Cl1031  1  0.38888889  0.72222222  0.61111111  1.0
  Cl  Cl1032  1  0.38888889  0.72222222  0.72222222  1.0
  Cl  Cl1033  1  0.38888889  0.72222222  0.83333333  1.0
  Cl  Cl1034  1  0.38888889  0.72222222  0.94444444  1.0
  Cl  Cl1035  1  0.38888889  0.83333333  0.05555556  1.0
  Cl  Cl1036  1  0.38888889  0.83333333  0.16666667  1.0
  Cl  Cl1037  1  0.38888889  0.83333333  0.27777778  1.0
  Cl  Cl1038  1  0.38888889  0.83333333  0.38888889  1.0
  Cl  Cl1039  1  0.38888889  0.83333333  0.50000000  1.0
  Cl  Cl1040  1  0.38888889  0.83333333  0.61111111  1.0
  Cl  Cl1041  1  0.38888889  0.83333333  0.72222222  1.0
  Cl  Cl1042  1  0.38888889  0.83333333  0.83333333  1.0
  Cl  Cl1043  1  0.38888889  0.83333333  0.94444444  1.0
  Cl  Cl1044  1  0.38888889  0.94444444  0.05555556  1.0
  Cl  Cl1045  1  0.38888889  0.94444444  0.16666667  1.0
  Cl  Cl1046  1  0.38888889  0.94444444  0.27777778  1.0
  Cl  Cl1047  1  0.38888889  0.94444444  0.38888889  1.0
  Cl  Cl1048  1  0.38888889  0.94444444  0.50000000  1.0
  Cl  Cl1049  1  0.38888889  0.94444444  0.61111111  1.0
  Cl  Cl1050  1  0.38888889  0.94444444  0.72222222  1.0
  Cl  Cl1051  1  0.38888889  0.94444444  0.83333333  1.0
  Cl  Cl1052  1  0.38888889  0.94444444  0.94444444  1.0
  Cl  Cl1053  1  0.50000000  0.05555556  0.05555556  1.0
  Cl  Cl1054  1  0.50000000  0.05555556  0.16666667  1.0
  Cl  Cl1055  1  0.50000000  0.05555556  0.27777778  1.0
  Cl  Cl1056  1  0.50000000  0.05555556  0.38888889  1.0
  Cl  Cl1057  1  0.50000000  0.05555556  0.50000000  1.0
  Cl  Cl1058  1  0.50000000  0.05555556  0.61111111  1.0
  Cl  Cl1059  1  0.50000000  0.05555556  0.72222222  1.0
  Cl  Cl1060  1  0.50000000  0.05555556  0.83333333  1.0
  Cl  Cl1061  1  0.50000000  0.05555556  0.94444444  1.0
  Cl  Cl1062  1  0.50000000  0.16666667  0.05555556  1.0
  Cl  Cl1063  1  0.50000000  0.16666667  0.16666667  1.0
  Cl  Cl1064  1  0.50000000  0.16666667  0.27777778  1.0
  Cl  Cl1065  1  0.50000000  0.16666667  0.38888889  1.0
  Cl  Cl1066  1  0.50000000  0.16666667  0.50000000  1.0
  Cl  Cl1067  1  0.50000000  0.16666667  0.61111111  1.0
  Cl  Cl1068  1  0.50000000  0.16666667  0.72222222  1.0
  Cl  Cl1069  1  0.50000000  0.16666667  0.83333333  1.0
  Cl  Cl1070  1  0.50000000  0.16666667  0.94444444  1.0
  Cl  Cl1071  1  0.50000000  0.27777778  0.05555556  1.0
  Cl  Cl1072  1  0.50000000  0.27777778  0.16666667  1.0
  Cl  Cl1073  1  0.50000000  0.27777778  0.27777778  1.0
  Cl  Cl1074  1  0.50000000  0.27777778  0.38888889  1.0
  Cl  Cl1075  1  0.50000000  0.27777778  0.50000000  1.0
  Cl  Cl1076  1  0.50000000  0.27777778  0.61111111  1.0
  Cl  Cl1077  1  0.50000000  0.27777778  0.72222222  1.0
  Cl  Cl1078  1  0.50000000  0.27777778  0.83333333  1.0
  Cl  Cl1079  1  0.50000000  0.27777778  0.94444444  1.0
  Cl  Cl1080  1  0.50000000  0.38888889  0.05555556  1.0
  Cl  Cl1081  1  0.50000000  0.38888889  0.16666667  1.0
  Cl  Cl1082  1  0.50000000  0.38888889  0.27777778  1.0
  Cl  Cl1083  1  0.50000000  0.38888889  0.38888889  1.0
  Cl  Cl1084  1  0.50000000  0.38888889  0.50000000  1.0
  Cl  Cl1085  1  0.50000000  0.38888889  0.61111111  1.0
  Cl  Cl1086  1  0.50000000  0.38888889  0.72222222  1.0
  Cl  Cl1087  1  0.50000000  0.38888889  0.83333333  1.0
  Cl  Cl1088  1  0.50000000  0.38888889  0.94444444  1.0
  Cl  Cl1089  1  0.50000000  0.50000000  0.05555556  1.0
  Cl  Cl1090  1  0.50000000  0.50000000  0.16666667  1.0
  Cl  Cl1091  1  0.50000000  0.50000000  0.27777778  1.0
  Cl  Cl1092  1  0.50000000  0.50000000  0.38888889  1.0
  Cl  Cl1093  1  0.50000000  0.50000000  0.50000000  1.0
  Cl  Cl1094  1  0.50000000  0.50000000  0.61111111  1.0
  Cl  Cl1095  1  0.50000000  0.50000000  0.72222222  1.0
  Cl  Cl1096  1  0.50000000  0.50000000  0.83333333  1.0
  Cl  Cl1097  1  0.50000000  0.50000000  0.94444444  1.0
  Cl  Cl1098  1  0.50000000  0.61111111  0.05555556  1.0
  Cl  Cl1099  1  0.50000000  0.61111111  0.16666667  1.0
  Cl  Cl1100  1  0.50000000  0.61111111  0.27777778  1.0
  Cl  Cl1101  1  0.50000000  0.61111111  0.38888889  1.0
  Cl  Cl1102  1  0.50000000  0.61111111  0.50000000  1.0
  Cl  Cl1103  1  0.50000000  0.61111111  0.61111111  1.0
  Cl  Cl1104  1  0.50000000  0.61111111  0.72222222  1.0
  Cl  Cl1105  1  0.50000000  0.61111111  0.83333333  1.0
  Cl  Cl1106  1  0.50000000  0.61111111  0.94444444  1.0
  Cl  Cl1107  1  0.50000000  0.72222222  0.05555556  1.0
  Cl  Cl1108  1  0.50000000  0.72222222  0.16666667  1.0
  Cl  Cl1109  1  0.50000000  0.72222222  0.27777778  1.0
  Cl  Cl1110  1  0.50000000  0.72222222  0.38888889  1.0
  Cl  Cl1111  1  0.50000000  0.72222222  0.50000000  1.0
  Cl  Cl1112  1  0.50000000  0.72222222  0.61111111  1.0
  Cl  Cl1113  1  0.50000000  0.72222222  0.72222222  1.0
  Cl  Cl1114  1  0.50000000  0.72222222  0.83333333  1.0
  Cl  Cl1115  1  0.50000000  0.72222222  0.94444444  1.0
  Cl  Cl1116  1  0.50000000  0.83333333  0.05555556  1.0
  Cl  Cl1117  1  0.50000000  0.83333333  0.16666667  1.0
  Cl  Cl1118  1  0.50000000  0.83333333  0.27777778  1.0
  Cl  Cl1119  1  0.50000000  0.83333333  0.38888889  1.0
  Cl  Cl1120  1  0.50000000  0.83333333  0.50000000  1.0
  Cl  Cl1121  1  0.50000000  0.83333333  0.61111111  1.0
  Cl  Cl1122  1  0.50000000  0.83333333  0.72222222  1.0
  Cl  Cl1123  1  0.50000000  0.83333333  0.83333333  1.0
  Cl  Cl1124  1  0.50000000  0.83333333  0.94444444  1.0
  Cl  Cl1125  1  0.50000000  0.94444444  0.05555556  1.0
  Cl  Cl1126  1  0.50000000  0.94444444  0.16666667  1.0
  Cl  Cl1127  1  0.50000000  0.94444444  0.27777778  1.0
  Cl  Cl1128  1  0.50000000  0.94444444  0.38888889  1.0
  Cl  Cl1129  1  0.50000000  0.94444444  0.50000000  1.0
  Cl  Cl1130  1  0.50000000  0.94444444  0.61111111  1.0
  Cl  Cl1131  1  0.50000000  0.94444444  0.72222222  1.0
  Cl  Cl1132  1  0.50000000  0.94444444  0.83333333  1.0
  Cl  Cl1133  1  0.50000000  0.94444444  0.94444444  1.0
  Cl  Cl1134  1  0.61111111  0.05555556  0.05555556  1.0
  Cl  Cl1135  1  0.61111111  0.05555556  0.16666667  1.0
  Cl  Cl1136  1  0.61111111  0.05555556  0.27777778  1.0
  Cl  Cl1137  1  0.61111111  0.05555556  0.38888889  1.0
  Cl  Cl1138  1  0.61111111  0.05555556  0.50000000  1.0
  Cl  Cl1139  1  0.61111111  0.05555556  0.61111111  1.0
  Cl  Cl1140  1  0.61111111  0.05555556  0.72222222  1.0
  Cl  Cl1141  1  0.61111111  0.05555556  0.83333333  1.0
  Cl  Cl1142  1  0.61111111  0.05555556  0.94444444  1.0
  Cl  Cl1143  1  0.61111111  0.16666667  0.05555556  1.0
  Cl  Cl1144  1  0.61111111  0.16666667  0.16666667  1.0
  Cl  Cl1145  1  0.61111111  0.16666667  0.27777778  1.0
  Cl  Cl1146  1  0.61111111  0.16666667  0.38888889  1.0
  Cl  Cl1147  1  0.61111111  0.16666667  0.50000000  1.0
  Cl  Cl1148  1  0.61111111  0.16666667  0.61111111  1.0
  Cl  Cl1149  1  0.61111111  0.16666667  0.72222222  1.0
  Cl  Cl1150  1  0.61111111  0.16666667  0.83333333  1.0
  Cl  Cl1151  1  0.61111111  0.16666667  0.94444444  1.0
  Cl  Cl1152  1  0.61111111  0.27777778  0.05555556  1.0
  Cl  Cl1153  1  0.61111111  0.27777778  0.16666667  1.0
  Cl  Cl1154  1  0.61111111  0.27777778  0.27777778  1.0
  Cl  Cl1155  1  0.61111111  0.27777778  0.38888889  1.0
  Cl  Cl1156  1  0.61111111  0.27777778  0.50000000  1.0
  Cl  Cl1157  1  0.61111111  0.27777778  0.61111111  1.0
  Cl  Cl1158  1  0.61111111  0.27777778  0.72222222  1.0
  Cl  Cl1159  1  0.61111111  0.27777778  0.83333333  1.0
  Cl  Cl1160  1  0.61111111  0.27777778  0.94444444  1.0
  Cl  Cl1161  1  0.61111111  0.38888889  0.05555556  1.0
  Cl  Cl1162  1  0.61111111  0.38888889  0.16666667  1.0
  Cl  Cl1163  1  0.61111111  0.38888889  0.27777778  1.0
  Cl  Cl1164  1  0.61111111  0.38888889  0.38888889  1.0
  Cl  Cl1165  1  0.61111111  0.38888889  0.50000000  1.0
  Cl  Cl1166  1  0.61111111  0.38888889  0.61111111  1.0
  Cl  Cl1167  1  0.61111111  0.38888889  0.72222222  1.0
  Cl  Cl1168  1  0.61111111  0.38888889  0.83333333  1.0
  Cl  Cl1169  1  0.61111111  0.38888889  0.94444444  1.0
  Cl  Cl1170  1  0.61111111  0.50000000  0.05555556  1.0
  Cl  Cl1171  1  0.61111111  0.50000000  0.16666667  1.0
  Cl  Cl1172  1  0.61111111  0.50000000  0.27777778  1.0
  Cl  Cl1173  1  0.61111111  0.50000000  0.38888889  1.0
  Cl  Cl1174  1  0.61111111  0.50000000  0.50000000  1.0
  Cl  Cl1175  1  0.61111111  0.50000000  0.61111111  1.0
  Cl  Cl1176  1  0.61111111  0.50000000  0.72222222  1.0
  Cl  Cl1177  1  0.61111111  0.50000000  0.83333333  1.0
  Cl  Cl1178  1  0.61111111  0.50000000  0.94444444  1.0
  Cl  Cl1179  1  0.61111111  0.61111111  0.05555556  1.0
  Cl  Cl1180  1  0.61111111  0.61111111  0.16666667  1.0
  Cl  Cl1181  1  0.61111111  0.61111111  0.27777778  1.0
  Cl  Cl1182  1  0.61111111  0.61111111  0.38888889  1.0
  Cl  Cl1183  1  0.61111111  0.61111111  0.50000000  1.0
  Cl  Cl1184  1  0.61111111  0.61111111  0.61111111  1.0
  Cl  Cl1185  1  0.61111111  0.61111111  0.72222222  1.0
  Cl  Cl1186  1  0.61111111  0.61111111  0.83333333  1.0
  Cl  Cl1187  1  0.61111111  0.61111111  0.94444444  1.0
  Cl  Cl1188  1  0.61111111  0.72222222  0.05555556  1.0
  Cl  Cl1189  1  0.61111111  0.72222222  0.16666667  1.0
  Cl  Cl1190  1  0.61111111  0.72222222  0.27777778  1.0
  Cl  Cl1191  1  0.61111111  0.72222222  0.38888889  1.0
  Cl  Cl1192  1  0.61111111  0.72222222  0.50000000  1.0
  Cl  Cl1193  1  0.61111111  0.72222222  0.61111111  1.0
  Cl  Cl1194  1  0.61111111  0.72222222  0.72222222  1.0
  Cl  Cl1195  1  0.61111111  0.72222222  0.83333333  1.0
  Cl  Cl1196  1  0.61111111  0.72222222  0.94444444  1.0
  Cl  Cl1197  1  0.61111111  0.83333333  0.05555556  1.0
  Cl  Cl1198  1  0.61111111  0.83333333  0.16666667  1.0
  Cl  Cl1199  1  0.61111111  0.83333333  0.27777778  1.0
  Cl  Cl1200  1  0.61111111  0.83333333  0.38888889  1.0
  Cl  Cl1201  1  0.61111111  0.83333333  0.50000000  1.0
  Cl  Cl1202  1  0.61111111  0.83333333  0.61111111  1.0
  Cl  Cl1203  1  0.61111111  0.83333333  0.72222222  1.0
  Cl  Cl1204  1  0.61111111  0.83333333  0.83333333  1.0
  Cl  Cl1205  1  0.61111111  0.83333333  0.94444444  1.0
  Cl  Cl1206  1  0.61111111  0.94444444  0.05555556  1.0
  Cl  Cl1207  1  0.61111111  0.94444444  0.16666667  1.0
  Cl  Cl1208  1  0.61111111  0.94444444  0.27777778  1.0
  Cl  Cl1209  1  0.61111111  0.94444444  0.38888889  1.0
  Cl  Cl1210  1  0.61111111  0.94444444  0.50000000  1.0
  Cl  Cl1211  1  0.61111111  0.94444444  0.61111111  1.0
  Cl  Cl1212  1  0.61111111  0.94444444  0.72222222  1.0
  Cl  Cl1213  1  0.61111111  0.94444444  0.83333333  1.0
  Cl  Cl1214  1  0.61111111  0.94444444  0.94444444  1.0
  Cl  Cl1215  1  0.72222222  0.05555556  0.05555556  1.0
  Cl  Cl1216  1  0.72222222  0.05555556  0.16666667  1.0
  Cl  Cl1217  1  0.72222222  0.05555556  0.27777778  1.0
  Cl  Cl1218  1  0.72222222  0.05555556  0.38888889  1.0
  Cl  Cl1219  1  0.72222222  0.05555556  0.50000000  1.0
  Cl  Cl1220  1  0.72222222  0.05555556  0.61111111  1.0
  Cl  Cl1221  1  0.72222222  0.05555556  0.72222222  1.0
  Cl  Cl1222  1  0.72222222  0.05555556  0.83333333  1.0
  Cl  Cl1223  1  0.72222222  0.05555556  0.94444444  1.0
  Cl  Cl1224  1  0.72222222  0.16666667  0.05555556  1.0
  Cl  Cl1225  1  0.72222222  0.16666667  0.16666667  1.0
  Cl  Cl1226  1  0.72222222  0.16666667  0.27777778  1.0
  Cl  Cl1227  1  0.72222222  0.16666667  0.38888889  1.0
  Cl  Cl1228  1  0.72222222  0.16666667  0.50000000  1.0
  Cl  Cl1229  1  0.72222222  0.16666667  0.61111111  1.0
  Cl  Cl1230  1  0.72222222  0.16666667  0.72222222  1.0
  Cl  Cl1231  1  0.72222222  0.16666667  0.83333333  1.0
  Cl  Cl1232  1  0.72222222  0.16666667  0.94444444  1.0
  Cl  Cl1233  1  0.72222222  0.27777778  0.05555556  1.0
  Cl  Cl1234  1  0.72222222  0.27777778  0.16666667  1.0
  Cl  Cl1235  1  0.72222222  0.27777778  0.27777778  1.0
  Cl  Cl1236  1  0.72222222  0.27777778  0.38888889  1.0
  Cl  Cl1237  1  0.72222222  0.27777778  0.50000000  1.0
  Cl  Cl1238  1  0.72222222  0.27777778  0.61111111  1.0
  Cl  Cl1239  1  0.72222222  0.27777778  0.72222222  1.0
  Cl  Cl1240  1  0.72222222  0.27777778  0.83333333  1.0
  Cl  Cl1241  1  0.72222222  0.27777778  0.94444444  1.0
  Cl  Cl1242  1  0.72222222  0.38888889  0.05555556  1.0
  Cl  Cl1243  1  0.72222222  0.38888889  0.16666667  1.0
  Cl  Cl1244  1  0.72222222  0.38888889  0.27777778  1.0
  Cl  Cl1245  1  0.72222222  0.38888889  0.38888889  1.0
  Cl  Cl1246  1  0.72222222  0.38888889  0.50000000  1.0
  Cl  Cl1247  1  0.72222222  0.38888889  0.61111111  1.0
  Cl  Cl1248  1  0.72222222  0.38888889  0.72222222  1.0
  Cl  Cl1249  1  0.72222222  0.38888889  0.83333333  1.0
  Cl  Cl1250  1  0.72222222  0.38888889  0.94444444  1.0
  Cl  Cl1251  1  0.72222222  0.50000000  0.05555556  1.0
  Cl  Cl1252  1  0.72222222  0.50000000  0.16666667  1.0
  Cl  Cl1253  1  0.72222222  0.50000000  0.27777778  1.0
  Cl  Cl1254  1  0.72222222  0.50000000  0.38888889  1.0
  Cl  Cl1255  1  0.72222222  0.50000000  0.50000000  1.0
  Cl  Cl1256  1  0.72222222  0.50000000  0.61111111  1.0
  Cl  Cl1257  1  0.72222222  0.50000000  0.72222222  1.0
  Cl  Cl1258  1  0.72222222  0.50000000  0.83333333  1.0
  Cl  Cl1259  1  0.72222222  0.50000000  0.94444444  1.0
  Cl  Cl1260  1  0.72222222  0.61111111  0.05555556  1.0
  Cl  Cl1261  1  0.72222222  0.61111111  0.16666667  1.0
  Cl  Cl1262  1  0.72222222  0.61111111  0.27777778  1.0
  Cl  Cl1263  1  0.72222222  0.61111111  0.38888889  1.0
  Cl  Cl1264  1  0.72222222  0.61111111  0.50000000  1.0
  Cl  Cl1265  1  0.72222222  0.61111111  0.61111111  1.0
  Cl  Cl1266  1  0.72222222  0.61111111  0.72222222  1.0
  Cl  Cl1267  1  0.72222222  0.61111111  0.83333333  1.0
  Cl  Cl1268  1  0.72222222  0.61111111  0.94444444  1.0
  Cl  Cl1269  1  0.72222222  0.72222222  0.05555556  1.0
  Cl  Cl1270  1  0.72222222  0.72222222  0.16666667  1.0
  Cl  Cl1271  1  0.72222222  0.72222222  0.27777778  1.0
  Cl  Cl1272  1  0.72222222  0.72222222  0.38888889  1.0
  Cl  Cl1273  1  0.72222222  0.72222222  0.50000000  1.0
  Cl  Cl1274  1  0.72222222  0.72222222  0.61111111  1.0
  Cl  Cl1275  1  0.72222222  0.72222222  0.72222222  1.0
  Cl  Cl1276  1  0.72222222  0.72222222  0.83333333  1.0
  Cl  Cl1277  1  0.72222222  0.72222222  0.94444444  1.0
  Cl  Cl1278  1  0.72222222  0.83333333  0.05555556  1.0
  Cl  Cl1279  1  0.72222222  0.83333333  0.16666667  1.0
  Cl  Cl1280  1  0.72222222  0.83333333  0.27777778  1.0
  Cl  Cl1281  1  0.72222222  0.83333333  0.38888889  1.0
  Cl  Cl1282  1  0.72222222  0.83333333  0.50000000  1.0
  Cl  Cl1283  1  0.72222222  0.83333333  0.61111111  1.0
  Cl  Cl1284  1  0.72222222  0.83333333  0.72222222  1.0
  Cl  Cl1285  1  0.72222222  0.83333333  0.83333333  1.0
  Cl  Cl1286  1  0.72222222  0.83333333  0.94444444  1.0
  Cl  Cl1287  1  0.72222222  0.94444444  0.05555556  1.0
  Cl  Cl1288  1  0.72222222  0.94444444  0.16666667  1.0
  Cl  Cl1289  1  0.72222222  0.94444444  0.27777778  1.0
  Cl  Cl1290  1  0.72222222  0.94444444  0.38888889  1.0
  Cl  Cl1291  1  0.72222222  0.94444444  0.50000000  1.0
  Cl  Cl1292  1  0.72222222  0.94444444  0.61111111  1.0
  Cl  Cl1293  1  0.72222222  0.94444444  0.72222222  1.0
  Cl  Cl1294  1  0.72222222  0.94444444  0.83333333  1.0
  Cl  Cl1295  1  0.72222222  0.94444444  0.94444444  1.0
  Cl  Cl1296  1  0.83333333  0.05555556  0.05555556  1.0
  Cl  Cl1297  1  0.83333333  0.05555556  0.16666667  1.0
  Cl  Cl1298  1  0.83333333  0.05555556  0.27777778  1.0
  Cl  Cl1299  1  0.83333333  0.05555556  0.38888889  1.0
  Cl  Cl1300  1  0.83333333  0.05555556  0.50000000  1.0
  Cl  Cl1301  1  0.83333333  0.05555556  0.61111111  1.0
  Cl  Cl1302  1  0.83333333  0.05555556  0.72222222  1.0
  Cl  Cl1303  1  0.83333333  0.05555556  0.83333333  1.0
  Cl  Cl1304  1  0.83333333  0.05555556  0.94444444  1.0
  Cl  Cl1305  1  0.83333333  0.16666667  0.05555556  1.0
  Cl  Cl1306  1  0.83333333  0.16666667  0.16666667  1.0
  Cl  Cl1307  1  0.83333333  0.16666667  0.27777778  1.0
  Cl  Cl1308  1  0.83333333  0.16666667  0.38888889  1.0
  Cl  Cl1309  1  0.83333333  0.16666667  0.50000000  1.0
  Cl  Cl1310  1  0.83333333  0.16666667  0.61111111  1.0
  Cl  Cl1311  1  0.83333333  0.16666667  0.72222222  1.0
  Cl  Cl1312  1  0.83333333  0.16666667  0.83333333  1.0
  Cl  Cl1313  1  0.83333333  0.16666667  0.94444444  1.0
  Cl  Cl1314  1  0.83333333  0.27777778  0.05555556  1.0
  Cl  Cl1315  1  0.83333333  0.27777778  0.16666667  1.0
  Cl  Cl1316  1  0.83333333  0.27777778  0.27777778  1.0
  Cl  Cl1317  1  0.83333333  0.27777778  0.38888889  1.0
  Cl  Cl1318  1  0.83333333  0.27777778  0.50000000  1.0
  Cl  Cl1319  1  0.83333333  0.27777778  0.61111111  1.0
  Cl  Cl1320  1  0.83333333  0.27777778  0.72222222  1.0
  Cl  Cl1321  1  0.83333333  0.27777778  0.83333333  1.0
  Cl  Cl1322  1  0.83333333  0.27777778  0.94444444  1.0
  Cl  Cl1323  1  0.83333333  0.38888889  0.05555556  1.0
  Cl  Cl1324  1  0.83333333  0.38888889  0.16666667  1.0
  Cl  Cl1325  1  0.83333333  0.38888889  0.27777778  1.0
  Cl  Cl1326  1  0.83333333  0.38888889  0.38888889  1.0
  Cl  Cl1327  1  0.83333333  0.38888889  0.50000000  1.0
  Cl  Cl1328  1  0.83333333  0.38888889  0.61111111  1.0
  Cl  Cl1329  1  0.83333333  0.38888889  0.72222222  1.0
  Cl  Cl1330  1  0.83333333  0.38888889  0.83333333  1.0
  Cl  Cl1331  1  0.83333333  0.38888889  0.94444444  1.0
  Cl  Cl1332  1  0.83333333  0.50000000  0.05555556  1.0
  Cl  Cl1333  1  0.83333333  0.50000000  0.16666667  1.0
  Cl  Cl1334  1  0.83333333  0.50000000  0.27777778  1.0
  Cl  Cl1335  1  0.83333333  0.50000000  0.38888889  1.0
  Cl  Cl1336  1  0.83333333  0.50000000  0.50000000  1.0
  Cl  Cl1337  1  0.83333333  0.50000000  0.61111111  1.0
  Cl  Cl1338  1  0.83333333  0.50000000  0.72222222  1.0
  Cl  Cl1339  1  0.83333333  0.50000000  0.83333333  1.0
  Cl  Cl1340  1  0.83333333  0.50000000  0.94444444  1.0
  Cl  Cl1341  1  0.83333333  0.61111111  0.05555556  1.0
  Cl  Cl1342  1  0.83333333  0.61111111  0.16666667  1.0
  Cl  Cl1343  1  0.83333333  0.61111111  0.27777778  1.0
  Cl  Cl1344  1  0.83333333  0.61111111  0.38888889  1.0
  Cl  Cl1345  1  0.83333333  0.61111111  0.50000000  1.0
  Cl  Cl1346  1  0.83333333  0.61111111  0.61111111  1.0
  Cl  Cl1347  1  0.83333333  0.61111111  0.72222222  1.0
  Cl  Cl1348  1  0.83333333  0.61111111  0.83333333  1.0
  Cl  Cl1349  1  0.83333333  0.61111111  0.94444444  1.0
  Cl  Cl1350  1  0.83333333  0.72222222  0.05555556  1.0
  Cl  Cl1351  1  0.83333333  0.72222222  0.16666667  1.0
  Cl  Cl1352  1  0.83333333  0.72222222  0.27777778  1.0
  Cl  Cl1353  1  0.83333333  0.72222222  0.38888889  1.0
  Cl  Cl1354  1  0.83333333  0.72222222  0.50000000  1.0
  Cl  Cl1355  1  0.83333333  0.72222222  0.61111111  1.0
  Cl  Cl1356  1  0.83333333  0.72222222  0.72222222  1.0
  Cl  Cl1357  1  0.83333333  0.72222222  0.83333333  1.0
  Cl  Cl1358  1  0.83333333  0.72222222  0.94444444  1.0
  Cl  Cl1359  1  0.83333333  0.83333333  0.05555556  1.0
  Cl  Cl1360  1  0.83333333  0.83333333  0.16666667  1.0
  Cl  Cl1361  1  0.83333333  0.83333333  0.27777778  1.0
  Cl  Cl1362  1  0.83333333  0.83333333  0.38888889  1.0
  Cl  Cl1363  1  0.83333333  0.83333333  0.50000000  1.0
  Cl  Cl1364  1  0.83333333  0.83333333  0.61111111  1.0
  Cl  Cl1365  1  0.83333333  0.83333333  0.72222222  1.0
  Cl  Cl1366  1  0.83333333  0.83333333  0.83333333  1.0
  Cl  Cl1367  1  0.83333333  0.83333333  0.94444444  1.0
  Cl  Cl1368  1  0.83333333  0.94444444  0.05555556  1.0
  Cl  Cl1369  1  0.83333333  0.94444444  0.16666667  1.0
  Cl  Cl1370  1  0.83333333  0.94444444  0.27777778  1.0
  Cl  Cl1371  1  0.83333333  0.94444444  0.38888889  1.0
  Cl  Cl1372  1  0.83333333  0.94444444  0.50000000  1.0
  Cl  Cl1373  1  0.83333333  0.94444444  0.61111111  1.0
  Cl  Cl1374  1  0.83333333  0.94444444  0.72222222  1.0
  Cl  Cl1375  1  0.83333333  0.94444444  0.83333333  1.0
  Cl  Cl1376  1  0.83333333  0.94444444  0.94444444  1.0
  Cl  Cl1377  1  0.94444444  0.05555556  0.05555556  1.0
  Cl  Cl1378  1  0.94444444  0.05555556  0.16666667  1.0
  Cl  Cl1379  1  0.94444444  0.05555556  0.27777778  1.0
  Cl  Cl1380  1  0.94444444  0.05555556  0.38888889  1.0
  Cl  Cl1381  1  0.94444444  0.05555556  0.50000000  1.0
  Cl  Cl1382  1  0.94444444  0.05555556  0.61111111  1.0
  Cl  Cl1383  1  0.94444444  0.05555556  0.72222222  1.0
  Cl  Cl1384  1  0.94444444  0.05555556  0.83333333  1.0
  Cl  Cl1385  1  0.94444444  0.05555556  0.94444444  1.0
  Cl  Cl1386  1  0.94444444  0.16666667  0.05555556  1.0
  Cl  Cl1387  1  0.94444444  0.16666667  0.16666667  1.0
  Cl  Cl1388  1  0.94444444  0.16666667  0.27777778  1.0
  Cl  Cl1389  1  0.94444444  0.16666667  0.38888889  1.0
  Cl  Cl1390  1  0.94444444  0.16666667  0.50000000  1.0
  Cl  Cl1391  1  0.94444444  0.16666667  0.61111111  1.0
  Cl  Cl1392  1  0.94444444  0.16666667  0.72222222  1.0
  Cl  Cl1393  1  0.94444444  0.16666667  0.83333333  1.0
  Cl  Cl1394  1  0.94444444  0.16666667  0.94444444  1.0
  Cl  Cl1395  1  0.94444444  0.27777778  0.05555556  1.0
  Cl  Cl1396  1  0.94444444  0.27777778  0.16666667  1.0
  Cl  Cl1397  1  0.94444444  0.27777778  0.27777778  1.0
  Cl  Cl1398  1  0.94444444  0.27777778  0.38888889  1.0
  Cl  Cl1399  1  0.94444444  0.27777778  0.50000000  1.0
  Cl  Cl1400  1  0.94444444  0.27777778  0.61111111  1.0
  Cl  Cl1401  1  0.94444444  0.27777778  0.72222222  1.0
  Cl  Cl1402  1  0.94444444  0.27777778  0.83333333  1.0
  Cl  Cl1403  1  0.94444444  0.27777778  0.94444444  1.0
  Cl  Cl1404  1  0.94444444  0.38888889  0.05555556  1.0
  Cl  Cl1405  1  0.94444444  0.38888889  0.16666667  1.0
  Cl  Cl1406  1  0.94444444  0.38888889  0.27777778  1.0
  Cl  Cl1407  1  0.94444444  0.38888889  0.38888889  1.0
  Cl  Cl1408  1  0.94444444  0.38888889  0.50000000  1.0
  Cl  Cl1409  1  0.94444444  0.38888889  0.61111111  1.0
  Cl  Cl1410  1  0.94444444  0.38888889  0.72222222  1.0
  Cl  Cl1411  1  0.94444444  0.38888889  0.83333333  1.0
  Cl  Cl1412  1  0.94444444  0.38888889  0.94444444  1.0
  Cl  Cl1413  1  0.94444444  0.50000000  0.05555556  1.0
  Cl  Cl1414  1  0.94444444  0.50000000  0.16666667  1.0
  Cl  Cl1415  1  0.94444444  0.50000000  0.27777778  1.0
  Cl  Cl1416  1  0.94444444  0.50000000  0.38888889  1.0
  Cl  Cl1417  1  0.94444444  0.50000000  0.50000000  1.0
  Cl  Cl1418  1  0.94444444  0.50000000  0.61111111  1.0
  Cl  Cl1419  1  0.94444444  0.50000000  0.72222222  1.0
  Cl  Cl1420  1  0.94444444  0.50000000  0.83333333  1.0
  Cl  Cl1421  1  0.94444444  0.50000000  0.94444444  1.0
  Cl  Cl1422  1  0.94444444  0.61111111  0.05555556  1.0
  Cl  Cl1423  1  0.94444444  0.61111111  0.16666667  1.0
  Cl  Cl1424  1  0.94444444  0.61111111  0.27777778  1.0
  Cl  Cl1425  1  0.94444444  0.61111111  0.38888889  1.0
  Cl  Cl1426  1  0.94444444  0.61111111  0.50000000  1.0
  Cl  Cl1427  1  0.94444444  0.61111111  0.61111111  1.0
  Cl  Cl1428  1  0.94444444  0.61111111  0.72222222  1.0
  Cl  Cl1429  1  0.94444444  0.61111111  0.83333333  1.0
  Cl  Cl1430  1  0.94444444  0.61111111  0.94444444  1.0
  Cl  Cl1431  1  0.94444444  0.72222222  0.05555556  1.0
  Cl  Cl1432  1  0.94444444  0.72222222  0.16666667  1.0
  Cl  Cl1433  1  0.94444444  0.72222222  0.27777778  1.0
  Cl  Cl1434  1  0.94444444  0.72222222  0.38888889  1.0
  Cl  Cl1435  1  0.94444444  0.72222222  0.50000000  1.0
  Cl  Cl1436  1  0.94444444  0.72222222  0.61111111  1.0
  Cl  Cl1437  1  0.94444444  0.72222222  0.72222222  1.0
  Cl  Cl1438  1  0.94444444  0.72222222  0.83333333  1.0
  Cl  Cl1439  1  0.94444444  0.72222222  0.94444444  1.0
  Cl  Cl1440  1  0.94444444  0.83333333  0.05555556  1.0
  Cl  Cl1441  1  0.94444444  0.83333333  0.16666667  1.0
  Cl  Cl1442  1  0.94444444  0.83333333  0.27777778  1.0
  Cl  Cl1443  1  0.94444444  0.83333333  0.38888889  1.0
  Cl  Cl1444  1  0.94444444  0.83333333  0.50000000  1.0
  Cl  Cl1445  1  0.94444444  0.83333333  0.61111111  1.0
  Cl  Cl1446  1  0.94444444  0.83333333  0.72222222  1.0
  Cl  Cl1447  1  0.94444444  0.83333333  0.83333333  1.0
  Cl  Cl1448  1  0.94444444  0.83333333  0.94444444  1.0
  Cl  Cl1449  1  0.94444444  0.94444444  0.05555556  1.0
  Cl  Cl1450  1  0.94444444  0.94444444  0.16666667  1.0
  Cl  Cl1451  1  0.94444444  0.94444444  0.27777778  1.0
  Cl  Cl1452  1  0.94444444  0.94444444  0.38888889  1.0
  Cl  Cl1453  1  0.94444444  0.94444444  0.50000000  1.0
  Cl  Cl1454  1  0.94444444  0.94444444  0.61111111  1.0
  Cl  Cl1455  1  0.94444444  0.94444444  0.72222222  1.0
  Cl  Cl1456  1  0.94444444  0.94444444  0.83333333  1.0
  Cl  Cl1457  1  0.94444444  0.94444444  0.94444444  1.0
