# generated using pymatgen
data_Na8Li8Mg11Sc5Be16Nb48O32
_symmetry_space_group_name_H-M   'P 1'
_cell_length_a   24.43740000
_cell_length_b   24.43740000
_cell_length_c   24.43740000
_cell_angle_alpha   90.00000000
_cell_angle_beta   90.00000000
_cell_angle_gamma   90.00000000
_symmetry_Int_Tables_number   1
_chemical_formula_structural   Na8Li8Mg11Sc5Be16Nb48O32
_chemical_formula_sum   'Na216 Li216 Mg297 Sc135 Be432 Nb1296 O864'
_cell_volume   14593.68583355
_cell_formula_units_Z   27
loop_
 _symmetry_equiv_pos_site_id
 _symmetry_equiv_pos_as_xyz
  1  'x, y, z'
loop_
 _atom_site_type_symbol
 _atom_site_label
 _atom_site_symmetry_multiplicity
 _atom_site_fract_x
 _atom_site_fract_y
 _atom_site_fract_z
 _atom_site_occupancy
  Na  Na0  1  0.12500000  0.12500000  0.12500000  1.0
  Na  Na1  1  0.12500000  0.12500000  0.45833333  1.0
  Na  Na2  1  0.12500000  0.12500000  0.79166667  1.0
  Na  Na3  1  0.12500000  0.45833333  0.12500000  1.0
  Na  Na4  1  0.12500000  0.45833333  0.45833333  1.0
  Na  Na5  1  0.12500000  0.45833333  0.79166667  1.0
  Na  Na6  1  0.12500000  0.79166667  0.12500000  1.0
  Na  Na7  1  0.12500000  0.79166667  0.45833333  1.0
  Na  Na8  1  0.12500000  0.79166667  0.79166667  1.0
  Na  Na9  1  0.45833333  0.12500000  0.12500000  1.0
  Na  Na10  1  0.45833333  0.12500000  0.45833333  1.0
  Na  Na11  1  0.45833333  0.12500000  0.79166667  1.0
  Na  Na12  1  0.45833333  0.45833333  0.12500000  1.0
  Na  Na13  1  0.45833333  0.45833333  0.45833333  1.0
  Na  Na14  1  0.45833333  0.45833333  0.79166667  1.0
  Na  Na15  1  0.45833333  0.79166667  0.12500000  1.0
  Na  Na16  1  0.45833333  0.79166667  0.45833333  1.0
  Na  Na17  1  0.45833333  0.79166667  0.79166667  1.0
  Na  Na18  1  0.79166667  0.12500000  0.12500000  1.0
  Na  Na19  1  0.79166667  0.12500000  0.45833333  1.0
  Na  Na20  1  0.79166667  0.12500000  0.79166667  1.0
  Na  Na21  1  0.79166667  0.45833333  0.12500000  1.0
  Na  Na22  1  0.79166667  0.45833333  0.45833333  1.0
  Na  Na23  1  0.79166667  0.45833333  0.79166667  1.0
  Na  Na24  1  0.79166667  0.79166667  0.12500000  1.0
  Na  Na25  1  0.79166667  0.79166667  0.45833333  1.0
  Na  Na26  1  0.79166667  0.79166667  0.79166667  1.0
  Na  Na27  1  0.29166667  0.29166667  0.12500000  1.0
  Na  Na28  1  0.29166667  0.29166667  0.45833333  1.0
  Na  Na29  1  0.29166667  0.29166667  0.79166667  1.0
  Na  Na30  1  0.29166667  0.62500000  0.12500000  1.0
  Na  Na31  1  0.29166667  0.62500000  0.45833333  1.0
  Na  Na32  1  0.29166667  0.62500000  0.79166667  1.0
  Na  Na33  1  0.29166667  0.95833333  0.12500000  1.0
  Na  Na34  1  0.29166667  0.95833333  0.45833333  1.0
  Na  Na35  1  0.29166667  0.95833333  0.79166667  1.0
  Na  Na36  1  0.62500000  0.29166667  0.12500000  1.0
  Na  Na37  1  0.62500000  0.29166667  0.45833333  1.0
  Na  Na38  1  0.62500000  0.29166667  0.79166667  1.0
  Na  Na39  1  0.62500000  0.62500000  0.12500000  1.0
  Na  Na40  1  0.62500000  0.62500000  0.45833333  1.0
  Na  Na41  1  0.62500000  0.62500000  0.79166667  1.0
  Na  Na42  1  0.62500000  0.95833333  0.12500000  1.0
  Na  Na43  1  0.62500000  0.95833333  0.45833333  1.0
  Na  Na44  1  0.62500000  0.95833333  0.79166667  1.0
  Na  Na45  1  0.95833333  0.29166667  0.12500000  1.0
  Na  Na46  1  0.95833333  0.29166667  0.45833333  1.0
  Na  Na47  1  0.95833333  0.29166667  0.79166667  1.0
  Na  Na48  1  0.95833333  0.62500000  0.12500000  1.0
  Na  Na49  1  0.95833333  0.62500000  0.45833333  1.0
  Na  Na50  1  0.95833333  0.62500000  0.79166667  1.0
  Na  Na51  1  0.95833333  0.95833333  0.12500000  1.0
  Na  Na52  1  0.95833333  0.95833333  0.45833333  1.0
  Na  Na53  1  0.95833333  0.95833333  0.79166667  1.0
  Na  Na54  1  0.29166667  0.12500000  0.29166667  1.0
  Na  Na55  1  0.29166667  0.12500000  0.62500000  1.0
  Na  Na56  1  0.29166667  0.12500000  0.95833333  1.0
  Na  Na57  1  0.29166667  0.45833333  0.29166667  1.0
  Na  Na58  1  0.29166667  0.45833333  0.62500000  1.0
  Na  Na59  1  0.29166667  0.45833333  0.95833333  1.0
  Na  Na60  1  0.29166667  0.79166667  0.29166667  1.0
  Na  Na61  1  0.29166667  0.79166667  0.62500000  1.0
  Na  Na62  1  0.29166667  0.79166667  0.95833333  1.0
  Na  Na63  1  0.62500000  0.12500000  0.29166667  1.0
  Na  Na64  1  0.62500000  0.12500000  0.62500000  1.0
  Na  Na65  1  0.62500000  0.12500000  0.95833333  1.0
  Na  Na66  1  0.62500000  0.45833333  0.29166667  1.0
  Na  Na67  1  0.62500000  0.45833333  0.62500000  1.0
  Na  Na68  1  0.62500000  0.45833333  0.95833333  1.0
  Na  Na69  1  0.62500000  0.79166667  0.29166667  1.0
  Na  Na70  1  0.62500000  0.79166667  0.62500000  1.0
  Na  Na71  1  0.62500000  0.79166667  0.95833333  1.0
  Na  Na72  1  0.95833333  0.12500000  0.29166667  1.0
  Na  Na73  1  0.95833333  0.12500000  0.62500000  1.0
  Na  Na74  1  0.95833333  0.12500000  0.95833333  1.0
  Na  Na75  1  0.95833333  0.45833333  0.29166667  1.0
  Na  Na76  1  0.95833333  0.45833333  0.62500000  1.0
  Na  Na77  1  0.95833333  0.45833333  0.95833333  1.0
  Na  Na78  1  0.95833333  0.79166667  0.29166667  1.0
  Na  Na79  1  0.95833333  0.79166667  0.62500000  1.0
  Na  Na80  1  0.95833333  0.79166667  0.95833333  1.0
  Na  Na81  1  0.12500000  0.29166667  0.29166667  1.0
  Na  Na82  1  0.12500000  0.29166667  0.62500000  1.0
  Na  Na83  1  0.12500000  0.29166667  0.95833333  1.0
  Na  Na84  1  0.12500000  0.62500000  0.29166667  1.0
  Na  Na85  1  0.12500000  0.62500000  0.62500000  1.0
  Na  Na86  1  0.12500000  0.62500000  0.95833333  1.0
  Na  Na87  1  0.12500000  0.95833333  0.29166667  1.0
  Na  Na88  1  0.12500000  0.95833333  0.62500000  1.0
  Na  Na89  1  0.12500000  0.95833333  0.95833333  1.0
  Na  Na90  1  0.45833333  0.29166667  0.29166667  1.0
  Na  Na91  1  0.45833333  0.29166667  0.62500000  1.0
  Na  Na92  1  0.45833333  0.29166667  0.95833333  1.0
  Na  Na93  1  0.45833333  0.62500000  0.29166667  1.0
  Na  Na94  1  0.45833333  0.62500000  0.62500000  1.0
  Na  Na95  1  0.45833333  0.62500000  0.95833333  1.0
  Na  Na96  1  0.45833333  0.95833333  0.29166667  1.0
  Na  Na97  1  0.45833333  0.95833333  0.62500000  1.0
  Na  Na98  1  0.45833333  0.95833333  0.95833333  1.0
  Na  Na99  1  0.79166667  0.29166667  0.29166667  1.0
  Na  Na100  1  0.79166667  0.29166667  0.62500000  1.0
  Na  Na101  1  0.79166667  0.29166667  0.95833333  1.0
  Na  Na102  1  0.79166667  0.62500000  0.29166667  1.0
  Na  Na103  1  0.79166667  0.62500000  0.62500000  1.0
  Na  Na104  1  0.79166667  0.62500000  0.95833333  1.0
  Na  Na105  1  0.79166667  0.95833333  0.29166667  1.0
  Na  Na106  1  0.79166667  0.95833333  0.62500000  1.0
  Na  Na107  1  0.79166667  0.95833333  0.95833333  1.0
  Na  Na108  1  0.20833333  0.20833333  0.20833333  1.0
  Na  Na109  1  0.20833333  0.20833333  0.54166667  1.0
  Na  Na110  1  0.20833333  0.20833333  0.87500000  1.0
  Na  Na111  1  0.20833333  0.54166667  0.20833333  1.0
  Na  Na112  1  0.20833333  0.54166667  0.54166667  1.0
  Na  Na113  1  0.20833333  0.54166667  0.87500000  1.0
  Na  Na114  1  0.20833333  0.87500000  0.20833333  1.0
  Na  Na115  1  0.20833333  0.87500000  0.54166667  1.0
  Na  Na116  1  0.20833333  0.87500000  0.87500000  1.0
  Na  Na117  1  0.54166667  0.20833333  0.20833333  1.0
  Na  Na118  1  0.54166667  0.20833333  0.54166667  1.0
  Na  Na119  1  0.54166667  0.20833333  0.87500000  1.0
  Na  Na120  1  0.54166667  0.54166667  0.20833333  1.0
  Na  Na121  1  0.54166667  0.54166667  0.54166667  1.0
  Na  Na122  1  0.54166667  0.54166667  0.87500000  1.0
  Na  Na123  1  0.54166667  0.87500000  0.20833333  1.0
  Na  Na124  1  0.54166667  0.87500000  0.54166667  1.0
  Na  Na125  1  0.54166667  0.87500000  0.87500000  1.0
  Na  Na126  1  0.87500000  0.20833333  0.20833333  1.0
  Na  Na127  1  0.87500000  0.20833333  0.54166667  1.0
  Na  Na128  1  0.87500000  0.20833333  0.87500000  1.0
  Na  Na129  1  0.87500000  0.54166667  0.20833333  1.0
  Na  Na130  1  0.87500000  0.54166667  0.54166667  1.0
  Na  Na131  1  0.87500000  0.54166667  0.87500000  1.0
  Na  Na132  1  0.87500000  0.87500000  0.20833333  1.0
  Na  Na133  1  0.87500000  0.87500000  0.54166667  1.0
  Na  Na134  1  0.87500000  0.87500000  0.87500000  1.0
  Na  Na135  1  0.04166667  0.04166667  0.20833333  1.0
  Na  Na136  1  0.04166667  0.04166667  0.54166667  1.0
  Na  Na137  1  0.04166667  0.04166667  0.87500000  1.0
  Na  Na138  1  0.04166667  0.37500000  0.20833333  1.0
  Na  Na139  1  0.04166667  0.37500000  0.54166667  1.0
  Na  Na140  1  0.04166667  0.37500000  0.87500000  1.0
  Na  Na141  1  0.04166667  0.70833333  0.20833333  1.0
  Na  Na142  1  0.04166667  0.70833333  0.54166667  1.0
  Na  Na143  1  0.04166667  0.70833333  0.87500000  1.0
  Na  Na144  1  0.37500000  0.04166667  0.20833333  1.0
  Na  Na145  1  0.37500000  0.04166667  0.54166667  1.0
  Na  Na146  1  0.37500000  0.04166667  0.87500000  1.0
  Na  Na147  1  0.37500000  0.37500000  0.20833333  1.0
  Na  Na148  1  0.37500000  0.37500000  0.54166667  1.0
  Na  Na149  1  0.37500000  0.37500000  0.87500000  1.0
  Na  Na150  1  0.37500000  0.70833333  0.20833333  1.0
  Na  Na151  1  0.37500000  0.70833333  0.54166667  1.0
  Na  Na152  1  0.37500000  0.70833333  0.87500000  1.0
  Na  Na153  1  0.70833333  0.04166667  0.20833333  1.0
  Na  Na154  1  0.70833333  0.04166667  0.54166667  1.0
  Na  Na155  1  0.70833333  0.04166667  0.87500000  1.0
  Na  Na156  1  0.70833333  0.37500000  0.20833333  1.0
  Na  Na157  1  0.70833333  0.37500000  0.54166667  1.0
  Na  Na158  1  0.70833333  0.37500000  0.87500000  1.0
  Na  Na159  1  0.70833333  0.70833333  0.20833333  1.0
  Na  Na160  1  0.70833333  0.70833333  0.54166667  1.0
  Na  Na161  1  0.70833333  0.70833333  0.87500000  1.0
  Na  Na162  1  0.04166667  0.20833333  0.04166667  1.0
  Na  Na163  1  0.04166667  0.20833333  0.37500000  1.0
  Na  Na164  1  0.04166667  0.20833333  0.70833333  1.0
  Na  Na165  1  0.04166667  0.54166667  0.04166667  1.0
  Na  Na166  1  0.04166667  0.54166667  0.37500000  1.0
  Na  Na167  1  0.04166667  0.54166667  0.70833333  1.0
  Na  Na168  1  0.04166667  0.87500000  0.04166667  1.0
  Na  Na169  1  0.04166667  0.87500000  0.37500000  1.0
  Na  Na170  1  0.04166667  0.87500000  0.70833333  1.0
  Na  Na171  1  0.37500000  0.20833333  0.04166667  1.0
  Na  Na172  1  0.37500000  0.20833333  0.37500000  1.0
  Na  Na173  1  0.37500000  0.20833333  0.70833333  1.0
  Na  Na174  1  0.37500000  0.54166667  0.04166667  1.0
  Na  Na175  1  0.37500000  0.54166667  0.37500000  1.0
  Na  Na176  1  0.37500000  0.54166667  0.70833333  1.0
  Na  Na177  1  0.37500000  0.87500000  0.04166667  1.0
  Na  Na178  1  0.37500000  0.87500000  0.37500000  1.0
  Na  Na179  1  0.37500000  0.87500000  0.70833333  1.0
  Na  Na180  1  0.70833333  0.20833333  0.04166667  1.0
  Na  Na181  1  0.70833333  0.20833333  0.37500000  1.0
  Na  Na182  1  0.70833333  0.20833333  0.70833333  1.0
  Na  Na183  1  0.70833333  0.54166667  0.04166667  1.0
  Na  Na184  1  0.70833333  0.54166667  0.37500000  1.0
  Na  Na185  1  0.70833333  0.54166667  0.70833333  1.0
  Na  Na186  1  0.70833333  0.87500000  0.04166667  1.0
  Na  Na187  1  0.70833333  0.87500000  0.37500000  1.0
  Na  Na188  1  0.70833333  0.87500000  0.70833333  1.0
  Na  Na189  1  0.20833333  0.04166667  0.04166667  1.0
  Na  Na190  1  0.20833333  0.04166667  0.37500000  1.0
  Na  Na191  1  0.20833333  0.04166667  0.70833333  1.0
  Na  Na192  1  0.20833333  0.37500000  0.04166667  1.0
  Na  Na193  1  0.20833333  0.37500000  0.37500000  1.0
  Na  Na194  1  0.20833333  0.37500000  0.70833333  1.0
  Na  Na195  1  0.20833333  0.70833333  0.04166667  1.0
  Na  Na196  1  0.20833333  0.70833333  0.37500000  1.0
  Na  Na197  1  0.20833333  0.70833333  0.70833333  1.0
  Na  Na198  1  0.54166667  0.04166667  0.04166667  1.0
  Na  Na199  1  0.54166667  0.04166667  0.37500000  1.0
  Na  Na200  1  0.54166667  0.04166667  0.70833333  1.0
  Na  Na201  1  0.54166667  0.37500000  0.04166667  1.0
  Na  Na202  1  0.54166667  0.37500000  0.37500000  1.0
  Na  Na203  1  0.54166667  0.37500000  0.70833333  1.0
  Na  Na204  1  0.54166667  0.70833333  0.04166667  1.0
  Na  Na205  1  0.54166667  0.70833333  0.37500000  1.0
  Na  Na206  1  0.54166667  0.70833333  0.70833333  1.0
  Na  Na207  1  0.87500000  0.04166667  0.04166667  1.0
  Na  Na208  1  0.87500000  0.04166667  0.37500000  1.0
  Na  Na209  1  0.87500000  0.04166667  0.70833333  1.0
  Na  Na210  1  0.87500000  0.37500000  0.04166667  1.0
  Na  Na211  1  0.87500000  0.37500000  0.37500000  1.0
  Na  Na212  1  0.87500000  0.37500000  0.70833333  1.0
  Na  Na213  1  0.87500000  0.70833333  0.04166667  1.0
  Na  Na214  1  0.87500000  0.70833333  0.37500000  1.0
  Na  Na215  1  0.87500000  0.70833333  0.70833333  1.0
  Li  Li216  1  0.29166667  0.29166667  0.29166667  1.0
  Li  Li217  1  0.29166667  0.29166667  0.62500000  1.0
  Li  Li218  1  0.29166667  0.29166667  0.95833333  1.0
  Li  Li219  1  0.29166667  0.62500000  0.29166667  1.0
  Li  Li220  1  0.29166667  0.62500000  0.62500000  1.0
  Li  Li221  1  0.29166667  0.62500000  0.95833333  1.0
  Li  Li222  1  0.29166667  0.95833333  0.29166667  1.0
  Li  Li223  1  0.29166667  0.95833333  0.62500000  1.0
  Li  Li224  1  0.29166667  0.95833333  0.95833333  1.0
  Li  Li225  1  0.62500000  0.29166667  0.29166667  1.0
  Li  Li226  1  0.62500000  0.29166667  0.62500000  1.0
  Li  Li227  1  0.62500000  0.29166667  0.95833333  1.0
  Li  Li228  1  0.62500000  0.62500000  0.29166667  1.0
  Li  Li229  1  0.62500000  0.62500000  0.62500000  1.0
  Li  Li230  1  0.62500000  0.62500000  0.95833333  1.0
  Li  Li231  1  0.62500000  0.95833333  0.29166667  1.0
  Li  Li232  1  0.62500000  0.95833333  0.62500000  1.0
  Li  Li233  1  0.62500000  0.95833333  0.95833333  1.0
  Li  Li234  1  0.95833333  0.29166667  0.29166667  1.0
  Li  Li235  1  0.95833333  0.29166667  0.62500000  1.0
  Li  Li236  1  0.95833333  0.29166667  0.95833333  1.0
  Li  Li237  1  0.95833333  0.62500000  0.29166667  1.0
  Li  Li238  1  0.95833333  0.62500000  0.62500000  1.0
  Li  Li239  1  0.95833333  0.62500000  0.95833333  1.0
  Li  Li240  1  0.95833333  0.95833333  0.29166667  1.0
  Li  Li241  1  0.95833333  0.95833333  0.62500000  1.0
  Li  Li242  1  0.95833333  0.95833333  0.95833333  1.0
  Li  Li243  1  0.12500000  0.12500000  0.29166667  1.0
  Li  Li244  1  0.12500000  0.12500000  0.62500000  1.0
  Li  Li245  1  0.12500000  0.12500000  0.95833333  1.0
  Li  Li246  1  0.12500000  0.45833333  0.29166667  1.0
  Li  Li247  1  0.12500000  0.45833333  0.62500000  1.0
  Li  Li248  1  0.12500000  0.45833333  0.95833333  1.0
  Li  Li249  1  0.12500000  0.79166667  0.29166667  1.0
  Li  Li250  1  0.12500000  0.79166667  0.62500000  1.0
  Li  Li251  1  0.12500000  0.79166667  0.95833333  1.0
  Li  Li252  1  0.45833333  0.12500000  0.29166667  1.0
  Li  Li253  1  0.45833333  0.12500000  0.62500000  1.0
  Li  Li254  1  0.45833333  0.12500000  0.95833333  1.0
  Li  Li255  1  0.45833333  0.45833333  0.29166667  1.0
  Li  Li256  1  0.45833333  0.45833333  0.62500000  1.0
  Li  Li257  1  0.45833333  0.45833333  0.95833333  1.0
  Li  Li258  1  0.45833333  0.79166667  0.29166667  1.0
  Li  Li259  1  0.45833333  0.79166667  0.62500000  1.0
  Li  Li260  1  0.45833333  0.79166667  0.95833333  1.0
  Li  Li261  1  0.79166667  0.12500000  0.29166667  1.0
  Li  Li262  1  0.79166667  0.12500000  0.62500000  1.0
  Li  Li263  1  0.79166667  0.12500000  0.95833333  1.0
  Li  Li264  1  0.79166667  0.45833333  0.29166667  1.0
  Li  Li265  1  0.79166667  0.45833333  0.62500000  1.0
  Li  Li266  1  0.79166667  0.45833333  0.95833333  1.0
  Li  Li267  1  0.79166667  0.79166667  0.29166667  1.0
  Li  Li268  1  0.79166667  0.79166667  0.62500000  1.0
  Li  Li269  1  0.79166667  0.79166667  0.95833333  1.0
  Li  Li270  1  0.12500000  0.29166667  0.12500000  1.0
  Li  Li271  1  0.12500000  0.29166667  0.45833333  1.0
  Li  Li272  1  0.12500000  0.29166667  0.79166667  1.0
  Li  Li273  1  0.12500000  0.62500000  0.12500000  1.0
  Li  Li274  1  0.12500000  0.62500000  0.45833333  1.0
  Li  Li275  1  0.12500000  0.62500000  0.79166667  1.0
  Li  Li276  1  0.12500000  0.95833333  0.12500000  1.0
  Li  Li277  1  0.12500000  0.95833333  0.45833333  1.0
  Li  Li278  1  0.12500000  0.95833333  0.79166667  1.0
  Li  Li279  1  0.45833333  0.29166667  0.12500000  1.0
  Li  Li280  1  0.45833333  0.29166667  0.45833333  1.0
  Li  Li281  1  0.45833333  0.29166667  0.79166667  1.0
  Li  Li282  1  0.45833333  0.62500000  0.12500000  1.0
  Li  Li283  1  0.45833333  0.62500000  0.45833333  1.0
  Li  Li284  1  0.45833333  0.62500000  0.79166667  1.0
  Li  Li285  1  0.45833333  0.95833333  0.12500000  1.0
  Li  Li286  1  0.45833333  0.95833333  0.45833333  1.0
  Li  Li287  1  0.45833333  0.95833333  0.79166667  1.0
  Li  Li288  1  0.79166667  0.29166667  0.12500000  1.0
  Li  Li289  1  0.79166667  0.29166667  0.45833333  1.0
  Li  Li290  1  0.79166667  0.29166667  0.79166667  1.0
  Li  Li291  1  0.79166667  0.62500000  0.12500000  1.0
  Li  Li292  1  0.79166667  0.62500000  0.45833333  1.0
  Li  Li293  1  0.79166667  0.62500000  0.79166667  1.0
  Li  Li294  1  0.79166667  0.95833333  0.12500000  1.0
  Li  Li295  1  0.79166667  0.95833333  0.45833333  1.0
  Li  Li296  1  0.79166667  0.95833333  0.79166667  1.0
  Li  Li297  1  0.29166667  0.12500000  0.12500000  1.0
  Li  Li298  1  0.29166667  0.12500000  0.45833333  1.0
  Li  Li299  1  0.29166667  0.12500000  0.79166667  1.0
  Li  Li300  1  0.29166667  0.45833333  0.12500000  1.0
  Li  Li301  1  0.29166667  0.45833333  0.45833333  1.0
  Li  Li302  1  0.29166667  0.45833333  0.79166667  1.0
  Li  Li303  1  0.29166667  0.79166667  0.12500000  1.0
  Li  Li304  1  0.29166667  0.79166667  0.45833333  1.0
  Li  Li305  1  0.29166667  0.79166667  0.79166667  1.0
  Li  Li306  1  0.62500000  0.12500000  0.12500000  1.0
  Li  Li307  1  0.62500000  0.12500000  0.45833333  1.0
  Li  Li308  1  0.62500000  0.12500000  0.79166667  1.0
  Li  Li309  1  0.62500000  0.45833333  0.12500000  1.0
  Li  Li310  1  0.62500000  0.45833333  0.45833333  1.0
  Li  Li311  1  0.62500000  0.45833333  0.79166667  1.0
  Li  Li312  1  0.62500000  0.79166667  0.12500000  1.0
  Li  Li313  1  0.62500000  0.79166667  0.45833333  1.0
  Li  Li314  1  0.62500000  0.79166667  0.79166667  1.0
  Li  Li315  1  0.95833333  0.12500000  0.12500000  1.0
  Li  Li316  1  0.95833333  0.12500000  0.45833333  1.0
  Li  Li317  1  0.95833333  0.12500000  0.79166667  1.0
  Li  Li318  1  0.95833333  0.45833333  0.12500000  1.0
  Li  Li319  1  0.95833333  0.45833333  0.45833333  1.0
  Li  Li320  1  0.95833333  0.45833333  0.79166667  1.0
  Li  Li321  1  0.95833333  0.79166667  0.12500000  1.0
  Li  Li322  1  0.95833333  0.79166667  0.45833333  1.0
  Li  Li323  1  0.95833333  0.79166667  0.79166667  1.0
  Li  Li324  1  0.04166667  0.04166667  0.04166667  1.0
  Li  Li325  1  0.04166667  0.04166667  0.37500000  1.0
  Li  Li326  1  0.04166667  0.04166667  0.70833333  1.0
  Li  Li327  1  0.04166667  0.37500000  0.04166667  1.0
  Li  Li328  1  0.04166667  0.37500000  0.37500000  1.0
  Li  Li329  1  0.04166667  0.37500000  0.70833333  1.0
  Li  Li330  1  0.04166667  0.70833333  0.04166667  1.0
  Li  Li331  1  0.04166667  0.70833333  0.37500000  1.0
  Li  Li332  1  0.04166667  0.70833333  0.70833333  1.0
  Li  Li333  1  0.37500000  0.04166667  0.04166667  1.0
  Li  Li334  1  0.37500000  0.04166667  0.37500000  1.0
  Li  Li335  1  0.37500000  0.04166667  0.70833333  1.0
  Li  Li336  1  0.37500000  0.37500000  0.04166667  1.0
  Li  Li337  1  0.37500000  0.37500000  0.37500000  1.0
  Li  Li338  1  0.37500000  0.37500000  0.70833333  1.0
  Li  Li339  1  0.37500000  0.70833333  0.04166667  1.0
  Li  Li340  1  0.37500000  0.70833333  0.37500000  1.0
  Li  Li341  1  0.37500000  0.70833333  0.70833333  1.0
  Li  Li342  1  0.70833333  0.04166667  0.04166667  1.0
  Li  Li343  1  0.70833333  0.04166667  0.37500000  1.0
  Li  Li344  1  0.70833333  0.04166667  0.70833333  1.0
  Li  Li345  1  0.70833333  0.37500000  0.04166667  1.0
  Li  Li346  1  0.70833333  0.37500000  0.37500000  1.0
  Li  Li347  1  0.70833333  0.37500000  0.70833333  1.0
  Li  Li348  1  0.70833333  0.70833333  0.04166667  1.0
  Li  Li349  1  0.70833333  0.70833333  0.37500000  1.0
  Li  Li350  1  0.70833333  0.70833333  0.70833333  1.0
  Li  Li351  1  0.20833333  0.20833333  0.04166667  1.0
  Li  Li352  1  0.20833333  0.20833333  0.37500000  1.0
  Li  Li353  1  0.20833333  0.20833333  0.70833333  1.0
  Li  Li354  1  0.20833333  0.54166667  0.04166667  1.0
  Li  Li355  1  0.20833333  0.54166667  0.37500000  1.0
  Li  Li356  1  0.20833333  0.54166667  0.70833333  1.0
  Li  Li357  1  0.20833333  0.87500000  0.04166667  1.0
  Li  Li358  1  0.20833333  0.87500000  0.37500000  1.0
  Li  Li359  1  0.20833333  0.87500000  0.70833333  1.0
  Li  Li360  1  0.54166667  0.20833333  0.04166667  1.0
  Li  Li361  1  0.54166667  0.20833333  0.37500000  1.0
  Li  Li362  1  0.54166667  0.20833333  0.70833333  1.0
  Li  Li363  1  0.54166667  0.54166667  0.04166667  1.0
  Li  Li364  1  0.54166667  0.54166667  0.37500000  1.0
  Li  Li365  1  0.54166667  0.54166667  0.70833333  1.0
  Li  Li366  1  0.54166667  0.87500000  0.04166667  1.0
  Li  Li367  1  0.54166667  0.87500000  0.37500000  1.0
  Li  Li368  1  0.54166667  0.87500000  0.70833333  1.0
  Li  Li369  1  0.87500000  0.20833333  0.04166667  1.0
  Li  Li370  1  0.87500000  0.20833333  0.37500000  1.0
  Li  Li371  1  0.87500000  0.20833333  0.70833333  1.0
  Li  Li372  1  0.87500000  0.54166667  0.04166667  1.0
  Li  Li373  1  0.87500000  0.54166667  0.37500000  1.0
  Li  Li374  1  0.87500000  0.54166667  0.70833333  1.0
  Li  Li375  1  0.87500000  0.87500000  0.04166667  1.0
  Li  Li376  1  0.87500000  0.87500000  0.37500000  1.0
  Li  Li377  1  0.87500000  0.87500000  0.70833333  1.0
  Li  Li378  1  0.20833333  0.04166667  0.20833333  1.0
  Li  Li379  1  0.20833333  0.04166667  0.54166667  1.0
  Li  Li380  1  0.20833333  0.04166667  0.87500000  1.0
  Li  Li381  1  0.20833333  0.37500000  0.20833333  1.0
  Li  Li382  1  0.20833333  0.37500000  0.54166667  1.0
  Li  Li383  1  0.20833333  0.37500000  0.87500000  1.0
  Li  Li384  1  0.20833333  0.70833333  0.20833333  1.0
  Li  Li385  1  0.20833333  0.70833333  0.54166667  1.0
  Li  Li386  1  0.20833333  0.70833333  0.87500000  1.0
  Li  Li387  1  0.54166667  0.04166667  0.20833333  1.0
  Li  Li388  1  0.54166667  0.04166667  0.54166667  1.0
  Li  Li389  1  0.54166667  0.04166667  0.87500000  1.0
  Li  Li390  1  0.54166667  0.37500000  0.20833333  1.0
  Li  Li391  1  0.54166667  0.37500000  0.54166667  1.0
  Li  Li392  1  0.54166667  0.37500000  0.87500000  1.0
  Li  Li393  1  0.54166667  0.70833333  0.20833333  1.0
  Li  Li394  1  0.54166667  0.70833333  0.54166667  1.0
  Li  Li395  1  0.54166667  0.70833333  0.87500000  1.0
  Li  Li396  1  0.87500000  0.04166667  0.20833333  1.0
  Li  Li397  1  0.87500000  0.04166667  0.54166667  1.0
  Li  Li398  1  0.87500000  0.04166667  0.87500000  1.0
  Li  Li399  1  0.87500000  0.37500000  0.20833333  1.0
  Li  Li400  1  0.87500000  0.37500000  0.54166667  1.0
  Li  Li401  1  0.87500000  0.37500000  0.87500000  1.0
  Li  Li402  1  0.87500000  0.70833333  0.20833333  1.0
  Li  Li403  1  0.87500000  0.70833333  0.54166667  1.0
  Li  Li404  1  0.87500000  0.70833333  0.87500000  1.0
  Li  Li405  1  0.04166667  0.20833333  0.20833333  1.0
  Li  Li406  1  0.04166667  0.20833333  0.54166667  1.0
  Li  Li407  1  0.04166667  0.20833333  0.87500000  1.0
  Li  Li408  1  0.04166667  0.54166667  0.20833333  1.0
  Li  Li409  1  0.04166667  0.54166667  0.54166667  1.0
  Li  Li410  1  0.04166667  0.54166667  0.87500000  1.0
  Li  Li411  1  0.04166667  0.87500000  0.20833333  1.0
  Li  Li412  1  0.04166667  0.87500000  0.54166667  1.0
  Li  Li413  1  0.04166667  0.87500000  0.87500000  1.0
  Li  Li414  1  0.37500000  0.20833333  0.20833333  1.0
  Li  Li415  1  0.37500000  0.20833333  0.54166667  1.0
  Li  Li416  1  0.37500000  0.20833333  0.87500000  1.0
  Li  Li417  1  0.37500000  0.54166667  0.20833333  1.0
  Li  Li418  1  0.37500000  0.54166667  0.54166667  1.0
  Li  Li419  1  0.37500000  0.54166667  0.87500000  1.0
  Li  Li420  1  0.37500000  0.87500000  0.20833333  1.0
  Li  Li421  1  0.37500000  0.87500000  0.54166667  1.0
  Li  Li422  1  0.37500000  0.87500000  0.87500000  1.0
  Li  Li423  1  0.70833333  0.20833333  0.20833333  1.0
  Li  Li424  1  0.70833333  0.20833333  0.54166667  1.0
  Li  Li425  1  0.70833333  0.20833333  0.87500000  1.0
  Li  Li426  1  0.70833333  0.54166667  0.20833333  1.0
  Li  Li427  1  0.70833333  0.54166667  0.54166667  1.0
  Li  Li428  1  0.70833333  0.54166667  0.87500000  1.0
  Li  Li429  1  0.70833333  0.87500000  0.20833333  1.0
  Li  Li430  1  0.70833333  0.87500000  0.54166667  1.0
  Li  Li431  1  0.70833333  0.87500000  0.87500000  1.0
  Sc  Sc432  1  0.16666667  0.16666667  0.16666667  1
  Sc  Sc433  1  0.16666667  0.16666667  0.50000000  1
  Mg  Mg434  1  0.16666667  0.16666667  0.83333333  1.0
  Mg  Mg435  1  0.16666667  0.50000000  0.16666667  1.0
  Sc  Sc436  1  0.16666667  0.50000000  0.50000000  1
  Sc  Sc437  1  0.16666667  0.50000000  0.83333333  1
  Mg  Mg438  1  0.16666667  0.83333333  0.16666667  1.0
  Mg  Mg439  1  0.16666667  0.83333333  0.50000000  1.0
  Mg  Mg440  1  0.16666667  0.83333333  0.83333333  1.0
  Sc  Sc441  1  0.50000000  0.16666667  0.16666667  1
  Sc  Sc442  1  0.50000000  0.16666667  0.50000000  1
  Mg  Mg443  1  0.50000000  0.16666667  0.83333333  1.0
  Mg  Mg444  1  0.50000000  0.50000000  0.16666667  1.0
  Sc  Sc445  1  0.50000000  0.50000000  0.50000000  1
  Mg  Mg446  1  0.50000000  0.50000000  0.83333333  1.0
  Mg  Mg447  1  0.50000000  0.83333333  0.16666667  1.0
  Mg  Mg448  1  0.50000000  0.83333333  0.50000000  1.0
  Mg  Mg449  1  0.50000000  0.83333333  0.83333333  1.0
  Sc  Sc450  1  0.83333333  0.16666667  0.16666667  1
  Sc  Sc451  1  0.83333333  0.16666667  0.50000000  1
  Mg  Mg452  1  0.83333333  0.16666667  0.83333333  1.0
  Sc  Sc453  1  0.83333333  0.50000000  0.16666667  1
  Mg  Mg454  1  0.83333333  0.50000000  0.50000000  1.0
  Mg  Mg455  1  0.83333333  0.50000000  0.83333333  1.0
  Sc  Sc456  1  0.83333333  0.83333333  0.16666667  1
  Mg  Mg457  1  0.83333333  0.83333333  0.50000000  1.0
  Mg  Mg458  1  0.83333333  0.83333333  0.83333333  1.0
  Sc  Sc459  1  0.00000000  0.00000000  0.16666667  1
  Sc  Sc460  1  0.00000000  0.00000000  0.50000000  1
  Mg  Mg461  1  0.00000000  0.00000000  0.83333333  1.0
  Mg  Mg462  1  0.00000000  0.33333333  0.16666667  1.0
  Mg  Mg463  1  0.00000000  0.33333333  0.50000000  1.0
  Sc  Sc464  1  0.00000000  0.33333333  0.83333333  1
  Sc  Sc465  1  0.00000000  0.66666667  0.16666667  1
  Sc  Sc466  1  0.00000000  0.66666667  0.50000000  1
  Mg  Mg467  1  0.00000000  0.66666667  0.83333333  1.0
  Mg  Mg468  1  0.33333333  0.00000000  0.16666667  1.0
  Sc  Sc469  1  0.33333333  0.00000000  0.50000000  1
  Mg  Mg470  1  0.33333333  0.00000000  0.83333333  1.0
  Sc  Sc471  1  0.33333333  0.33333333  0.16666667  1
  Sc  Sc472  1  0.33333333  0.33333333  0.50000000  1
  Mg  Mg473  1  0.33333333  0.33333333  0.83333333  1.0
  Sc  Sc474  1  0.33333333  0.66666667  0.16666667  1
  Mg  Mg475  1  0.33333333  0.66666667  0.50000000  1.0
  Mg  Mg476  1  0.33333333  0.66666667  0.83333333  1.0
  Mg  Mg477  1  0.66666667  0.00000000  0.16666667  1.0
  Sc  Sc478  1  0.66666667  0.00000000  0.50000000  1
  Sc  Sc479  1  0.66666667  0.00000000  0.83333333  1
  Mg  Mg480  1  0.66666667  0.33333333  0.16666667  1.0
  Mg  Mg481  1  0.66666667  0.33333333  0.50000000  1.0
  Mg  Mg482  1  0.66666667  0.33333333  0.83333333  1.0
  Mg  Mg483  1  0.66666667  0.66666667  0.16666667  1.0
  Mg  Mg484  1  0.66666667  0.66666667  0.50000000  1.0
  Sc  Sc485  1  0.66666667  0.66666667  0.83333333  1
  Mg  Mg486  1  0.00000000  0.16666667  0.00000000  1.0
  Mg  Mg487  1  0.00000000  0.16666667  0.33333333  1.0
  Mg  Mg488  1  0.00000000  0.16666667  0.66666667  1.0
  Sc  Sc489  1  0.00000000  0.50000000  0.00000000  1
  Sc  Sc490  1  0.00000000  0.50000000  0.33333333  1
  Mg  Mg491  1  0.00000000  0.50000000  0.66666667  1.0
  Mg  Mg492  1  0.00000000  0.83333333  0.00000000  1.0
  Mg  Mg493  1  0.00000000  0.83333333  0.33333333  1.0
  Sc  Sc494  1  0.00000000  0.83333333  0.66666667  1
  Sc  Sc495  1  0.33333333  0.16666667  0.00000000  1
  Mg  Mg496  1  0.33333333  0.16666667  0.33333333  1.0
  Mg  Mg497  1  0.33333333  0.16666667  0.66666667  1.0
  Mg  Mg498  1  0.33333333  0.50000000  0.00000000  1.0
  Mg  Mg499  1  0.33333333  0.50000000  0.33333333  1.0
  Sc  Sc500  1  0.33333333  0.50000000  0.66666667  1
  Mg  Mg501  1  0.33333333  0.83333333  0.00000000  1.0
  Mg  Mg502  1  0.33333333  0.83333333  0.33333333  1.0
  Mg  Mg503  1  0.33333333  0.83333333  0.66666667  1.0
  Mg  Mg504  1  0.66666667  0.16666667  0.00000000  1.0
  Sc  Sc505  1  0.66666667  0.16666667  0.33333333  1
  Sc  Sc506  1  0.66666667  0.16666667  0.66666667  1
  Sc  Sc507  1  0.66666667  0.50000000  0.00000000  1
  Mg  Mg508  1  0.66666667  0.50000000  0.33333333  1.0
  Mg  Mg509  1  0.66666667  0.50000000  0.66666667  1.0
  Sc  Sc510  1  0.66666667  0.83333333  0.00000000  1
  Mg  Mg511  1  0.66666667  0.83333333  0.33333333  1.0
  Mg  Mg512  1  0.66666667  0.83333333  0.66666667  1.0
  Mg  Mg513  1  0.16666667  0.00000000  0.00000000  1.0
  Mg  Mg514  1  0.16666667  0.00000000  0.33333333  1.0
  Mg  Mg515  1  0.16666667  0.00000000  0.66666667  1.0
  Mg  Mg516  1  0.16666667  0.33333333  0.00000000  1.0
  Sc  Sc517  1  0.16666667  0.33333333  0.33333333  1
  Mg  Mg518  1  0.16666667  0.33333333  0.66666667  1.0
  Mg  Mg519  1  0.16666667  0.66666667  0.00000000  1.0
  Mg  Mg520  1  0.16666667  0.66666667  0.33333333  1.0
  Mg  Mg521  1  0.16666667  0.66666667  0.66666667  1.0
  Mg  Mg522  1  0.50000000  0.00000000  0.00000000  1.0
  Sc  Sc523  1  0.50000000  0.00000000  0.33333333  1
  Mg  Mg524  1  0.50000000  0.00000000  0.66666667  1.0
  Mg  Mg525  1  0.50000000  0.33333333  0.00000000  1.0
  Mg  Mg526  1  0.50000000  0.33333333  0.33333333  1.0
  Sc  Sc527  1  0.50000000  0.33333333  0.66666667  1
  Sc  Sc528  1  0.50000000  0.66666667  0.00000000  1
  Sc  Sc529  1  0.50000000  0.66666667  0.33333333  1
  Mg  Mg530  1  0.50000000  0.66666667  0.66666667  1.0
  Sc  Sc531  1  0.83333333  0.00000000  0.00000000  1
  Mg  Mg532  1  0.83333333  0.00000000  0.33333333  1.0
  Mg  Mg533  1  0.83333333  0.00000000  0.66666667  1.0
  Sc  Sc534  1  0.83333333  0.33333333  0.00000000  1
  Mg  Mg535  1  0.83333333  0.33333333  0.33333333  1.0
  Mg  Mg536  1  0.83333333  0.33333333  0.66666667  1.0
  Mg  Mg537  1  0.83333333  0.66666667  0.00000000  1.0
  Mg  Mg538  1  0.83333333  0.66666667  0.33333333  1.0
  Mg  Mg539  1  0.83333333  0.66666667  0.66666667  1.0
  Mg  Mg540  1  0.16666667  0.08333333  0.08333333  1.0
  Mg  Mg541  1  0.16666667  0.08333333  0.41666667  1.0
  Mg  Mg542  1  0.16666667  0.08333333  0.75000000  1.0
  Mg  Mg543  1  0.16666667  0.41666667  0.08333333  1.0
  Mg  Mg544  1  0.16666667  0.41666667  0.41666667  1.0
  Sc  Sc545  1  0.16666667  0.41666667  0.75000000  1
  Sc  Sc546  1  0.16666667  0.75000000  0.08333333  1
  Mg  Mg547  1  0.16666667  0.75000000  0.41666667  1.0
  Mg  Mg548  1  0.16666667  0.75000000  0.75000000  1.0
  Mg  Mg549  1  0.50000000  0.08333333  0.08333333  1.0
  Mg  Mg550  1  0.50000000  0.08333333  0.41666667  1.0
  Mg  Mg551  1  0.50000000  0.08333333  0.75000000  1.0
  Mg  Mg552  1  0.50000000  0.41666667  0.08333333  1.0
  Mg  Mg553  1  0.50000000  0.41666667  0.41666667  1.0
  Sc  Sc554  1  0.50000000  0.41666667  0.75000000  1
  Mg  Mg555  1  0.50000000  0.75000000  0.08333333  1.0
  Mg  Mg556  1  0.50000000  0.75000000  0.41666667  1.0
  Mg  Mg557  1  0.50000000  0.75000000  0.75000000  1.0
  Mg  Mg558  1  0.83333333  0.08333333  0.08333333  1.0
  Mg  Mg559  1  0.83333333  0.08333333  0.41666667  1.0
  Sc  Sc560  1  0.83333333  0.08333333  0.75000000  1
  Mg  Mg561  1  0.83333333  0.41666667  0.08333333  1.0
  Mg  Mg562  1  0.83333333  0.41666667  0.41666667  1.0
  Mg  Mg563  1  0.83333333  0.41666667  0.75000000  1.0
  Mg  Mg564  1  0.83333333  0.75000000  0.08333333  1.0
  Mg  Mg565  1  0.83333333  0.75000000  0.41666667  1.0
  Mg  Mg566  1  0.83333333  0.75000000  0.75000000  1.0
  Mg  Mg567  1  0.00000000  0.25000000  0.08333333  1.0
  Mg  Mg568  1  0.00000000  0.25000000  0.41666667  1.0
  Mg  Mg569  1  0.00000000  0.25000000  0.75000000  1.0
  Mg  Mg570  1  0.00000000  0.58333333  0.08333333  1.0
  Mg  Mg571  1  0.00000000  0.58333333  0.41666667  1.0
  Mg  Mg572  1  0.00000000  0.58333333  0.75000000  1.0
  Mg  Mg573  1  0.00000000  0.91666667  0.08333333  1.0
  Sc  Sc574  1  0.00000000  0.91666667  0.41666667  1
  Sc  Sc575  1  0.00000000  0.91666667  0.75000000  1
  Mg  Mg576  1  0.33333333  0.25000000  0.08333333  1.0
  Mg  Mg577  1  0.33333333  0.25000000  0.41666667  1.0
  Mg  Mg578  1  0.33333333  0.25000000  0.75000000  1.0
  Sc  Sc579  1  0.33333333  0.58333333  0.08333333  1
  Mg  Mg580  1  0.33333333  0.58333333  0.41666667  1.0
  Mg  Mg581  1  0.33333333  0.58333333  0.75000000  1.0
  Mg  Mg582  1  0.33333333  0.91666667  0.08333333  1.0
  Mg  Mg583  1  0.33333333  0.91666667  0.41666667  1.0
  Sc  Sc584  1  0.33333333  0.91666667  0.75000000  1
  Mg  Mg585  1  0.66666667  0.25000000  0.08333333  1.0
  Mg  Mg586  1  0.66666667  0.25000000  0.41666667  1.0
  Mg  Mg587  1  0.66666667  0.25000000  0.75000000  1.0
  Mg  Mg588  1  0.66666667  0.58333333  0.08333333  1.0
  Mg  Mg589  1  0.66666667  0.58333333  0.41666667  1.0
  Mg  Mg590  1  0.66666667  0.58333333  0.75000000  1.0
  Sc  Sc591  1  0.66666667  0.91666667  0.08333333  1
  Sc  Sc592  1  0.66666667  0.91666667  0.41666667  1
  Mg  Mg593  1  0.66666667  0.91666667  0.75000000  1.0
  Sc  Sc594  1  0.00000000  0.08333333  0.25000000  1
  Mg  Mg595  1  0.00000000  0.08333333  0.58333333  1.0
  Mg  Mg596  1  0.00000000  0.08333333  0.91666667  1.0
  Mg  Mg597  1  0.00000000  0.41666667  0.25000000  1.0
  Mg  Mg598  1  0.00000000  0.41666667  0.58333333  1.0
  Mg  Mg599  1  0.00000000  0.41666667  0.91666667  1.0
  Mg  Mg600  1  1.00000000  0.75000000  0.25000000  1.0
  Sc  Sc601  1  1.00000000  0.75000000  0.58333333  1
  Mg  Mg602  1  1.00000000  0.75000000  0.91666667  1.0
  Mg  Mg603  1  0.33333333  0.08333333  0.25000000  1.0
  Mg  Mg604  1  0.33333333  0.08333333  0.58333333  1.0
  Mg  Mg605  1  0.33333333  0.08333333  0.91666667  1.0
  Sc  Sc606  1  0.33333333  0.41666667  0.25000000  1
  Sc  Sc607  1  0.33333333  0.41666667  0.58333333  1
  Sc  Sc608  1  0.33333333  0.41666667  0.91666667  1
  Sc  Sc609  1  0.33333333  0.75000000  0.25000000  1
  Sc  Sc610  1  0.33333333  0.75000000  0.58333333  1
  Mg  Mg611  1  0.33333333  0.75000000  0.91666667  1.0
  Sc  Sc612  1  0.66666667  0.08333333  0.25000000  1
  Mg  Mg613  1  0.66666667  0.08333333  0.58333333  1.0
  Mg  Mg614  1  0.66666667  0.08333333  0.91666667  1.0
  Sc  Sc615  1  0.66666667  0.41666667  0.25000000  1
  Mg  Mg616  1  0.66666667  0.41666667  0.58333333  1.0
  Sc  Sc617  1  0.66666667  0.41666667  0.91666667  1
  Mg  Mg618  1  0.66666667  0.75000000  0.25000000  1.0
  Mg  Mg619  1  0.66666667  0.75000000  0.58333333  1.0
  Sc  Sc620  1  0.66666667  0.75000000  0.91666667  1
  Mg  Mg621  1  0.16666667  0.25000000  0.25000000  1.0
  Sc  Sc622  1  0.16666667  0.25000000  0.58333333  1
  Mg  Mg623  1  0.16666667  0.25000000  0.91666667  1.0
  Sc  Sc624  1  0.16666667  0.58333333  0.25000000  1
  Mg  Mg625  1  0.16666667  0.58333333  0.58333333  1.0
  Sc  Sc626  1  0.16666667  0.58333333  0.91666667  1
  Mg  Mg627  1  0.16666667  0.91666667  0.25000000  1.0
  Mg  Mg628  1  0.16666667  0.91666667  0.58333333  1.0
  Mg  Mg629  1  0.16666667  0.91666667  0.91666667  1.0
  Sc  Sc630  1  0.50000000  0.25000000  0.25000000  1
  Mg  Mg631  1  0.50000000  0.25000000  0.58333333  1.0
  Mg  Mg632  1  0.50000000  0.25000000  0.91666667  1.0
  Mg  Mg633  1  0.50000000  0.58333333  0.25000000  1.0
  Sc  Sc634  1  0.50000000  0.58333333  0.58333333  1
  Mg  Mg635  1  0.50000000  0.58333333  0.91666667  1.0
  Mg  Mg636  1  0.50000000  0.91666667  0.25000000  1.0
  Mg  Mg637  1  0.50000000  0.91666667  0.58333333  1.0
  Mg  Mg638  1  0.50000000  0.91666667  0.91666667  1.0
  Mg  Mg639  1  0.83333333  0.25000000  0.25000000  1.0
  Sc  Sc640  1  0.83333333  0.25000000  0.58333333  1
  Sc  Sc641  1  0.83333333  0.25000000  0.91666667  1
  Mg  Mg642  1  0.83333333  0.58333333  0.25000000  1.0
  Sc  Sc643  1  0.83333333  0.58333333  0.58333333  1
  Mg  Mg644  1  0.83333333  0.58333333  0.91666667  1.0
  Sc  Sc645  1  0.83333333  0.91666667  0.25000000  1
  Sc  Sc646  1  0.83333333  0.91666667  0.58333333  1
  Mg  Mg647  1  0.83333333  0.91666667  0.91666667  1.0
  Mg  Mg648  1  0.08333333  0.16666667  0.08333333  1.0
  Sc  Sc649  1  0.08333333  0.16666667  0.41666667  1
  Sc  Sc650  1  0.08333333  0.16666667  0.75000000  1
  Mg  Mg651  1  0.08333333  0.50000000  0.08333333  1.0
  Mg  Mg652  1  0.08333333  0.50000000  0.41666667  1.0
  Mg  Mg653  1  0.08333333  0.50000000  0.75000000  1.0
  Sc  Sc654  1  0.08333333  0.83333333  0.08333333  1
  Mg  Mg655  1  0.08333333  0.83333333  0.41666667  1.0
  Sc  Sc656  1  0.08333333  0.83333333  0.75000000  1
  Sc  Sc657  1  0.41666667  0.16666667  0.08333333  1
  Mg  Mg658  1  0.41666667  0.16666667  0.41666667  1.0
  Sc  Sc659  1  0.41666667  0.16666667  0.75000000  1
  Mg  Mg660  1  0.41666667  0.50000000  0.08333333  1.0
  Sc  Sc661  1  0.41666667  0.50000000  0.41666667  1
  Mg  Mg662  1  0.41666667  0.50000000  0.75000000  1.0
  Mg  Mg663  1  0.41666667  0.83333333  0.08333333  1.0
  Mg  Mg664  1  0.41666667  0.83333333  0.41666667  1.0
  Sc  Sc665  1  0.41666667  0.83333333  0.75000000  1
  Mg  Mg666  1  0.75000000  0.16666667  0.08333333  1.0
  Sc  Sc667  1  0.75000000  0.16666667  0.41666667  1
  Sc  Sc668  1  0.75000000  0.16666667  0.75000000  1
  Mg  Mg669  1  0.75000000  0.50000000  0.08333333  1.0
  Mg  Mg670  1  0.75000000  0.50000000  0.41666667  1.0
  Mg  Mg671  1  0.75000000  0.50000000  0.75000000  1.0
  Mg  Mg672  1  0.75000000  0.83333333  0.08333333  1.0
  Mg  Mg673  1  0.75000000  0.83333333  0.41666667  1.0
  Mg  Mg674  1  0.75000000  0.83333333  0.75000000  1.0
  Mg  Mg675  1  0.25000000  0.00000000  0.08333333  1.0
  Sc  Sc676  1  0.25000000  0.00000000  0.41666667  1
  Mg  Mg677  1  0.25000000  0.00000000  0.75000000  1.0
  Mg  Mg678  1  0.25000000  0.33333333  0.08333333  1.0
  Mg  Mg679  1  0.25000000  0.33333333  0.41666667  1.0
  Mg  Mg680  1  0.25000000  0.33333333  0.75000000  1.0
  Mg  Mg681  1  0.25000000  0.66666667  0.08333333  1.0
  Mg  Mg682  1  0.25000000  0.66666667  0.41666667  1.0
  Mg  Mg683  1  0.25000000  0.66666667  0.75000000  1.0
  Mg  Mg684  1  0.58333333  0.00000000  0.08333333  1.0
  Mg  Mg685  1  0.58333333  0.00000000  0.41666667  1.0
  Mg  Mg686  1  0.58333333  0.00000000  0.75000000  1.0
  Mg  Mg687  1  0.58333333  0.33333333  0.08333333  1.0
  Mg  Mg688  1  0.58333333  0.33333333  0.41666667  1.0
  Mg  Mg689  1  0.58333333  0.33333333  0.75000000  1.0
  Mg  Mg690  1  0.58333333  0.66666667  0.08333333  1.0
  Mg  Mg691  1  0.58333333  0.66666667  0.41666667  1.0
  Sc  Sc692  1  0.58333333  0.66666667  0.75000000  1
  Sc  Sc693  1  0.91666667  0.00000000  0.08333333  1
  Mg  Mg694  1  0.91666667  0.00000000  0.41666667  1.0
  Mg  Mg695  1  0.91666667  0.00000000  0.75000000  1.0
  Mg  Mg696  1  0.91666667  0.33333333  0.08333333  1.0
  Sc  Sc697  1  0.91666667  0.33333333  0.41666667  1
  Sc  Sc698  1  0.91666667  0.33333333  0.75000000  1
  Mg  Mg699  1  0.91666667  0.66666667  0.08333333  1.0
  Sc  Sc700  1  0.91666667  0.66666667  0.41666667  1
  Sc  Sc701  1  0.91666667  0.66666667  0.75000000  1
  Sc  Sc702  1  0.25000000  0.16666667  0.25000000  1
  Mg  Mg703  1  0.25000000  0.16666667  0.58333333  1.0
  Sc  Sc704  1  0.25000000  0.16666667  0.91666667  1
  Mg  Mg705  1  0.25000000  0.50000000  0.25000000  1.0
  Sc  Sc706  1  0.25000000  0.50000000  0.58333333  1
  Sc  Sc707  1  0.25000000  0.50000000  0.91666667  1
  Mg  Mg708  1  0.25000000  0.83333333  0.25000000  1.0
  Sc  Sc709  1  0.25000000  0.83333333  0.58333333  1
  Mg  Mg710  1  0.25000000  0.83333333  0.91666667  1.0
  Mg  Mg711  1  0.58333333  0.16666667  0.25000000  1.0
  Mg  Mg712  1  0.58333333  0.16666667  0.58333333  1.0
  Mg  Mg713  1  0.58333333  0.16666667  0.91666667  1.0
  Mg  Mg714  1  0.58333333  0.50000000  0.25000000  1.0
  Mg  Mg715  1  0.58333333  0.50000000  0.58333333  1.0
  Mg  Mg716  1  0.58333333  0.50000000  0.91666667  1.0
  Mg  Mg717  1  0.58333333  0.83333333  0.25000000  1.0
  Mg  Mg718  1  0.58333333  0.83333333  0.58333333  1.0
  Sc  Sc719  1  0.58333333  0.83333333  0.91666667  1
  Mg  Mg720  1  0.91666667  0.16666667  0.25000000  1.0
  Mg  Mg721  1  0.91666667  0.16666667  0.58333333  1.0
  Mg  Mg722  1  0.91666667  0.16666667  0.91666667  1.0
  Sc  Sc723  1  0.91666667  0.50000000  0.25000000  1
  Mg  Mg724  1  0.91666667  0.50000000  0.58333333  1.0
  Mg  Mg725  1  0.91666667  0.50000000  0.91666667  1.0
  Mg  Mg726  1  0.91666667  0.83333333  0.25000000  1.0
  Mg  Mg727  1  0.91666667  0.83333333  0.58333333  1.0
  Sc  Sc728  1  0.91666667  0.83333333  0.91666667  1
  Mg  Mg729  1  0.08333333  0.00000000  0.25000000  1.0
  Mg  Mg730  1  0.08333333  0.00000000  0.58333333  1.0
  Sc  Sc731  1  0.08333333  0.00000000  0.91666667  1
  Mg  Mg732  1  0.08333333  0.33333333  0.25000000  1.0
  Mg  Mg733  1  0.08333333  0.33333333  0.58333333  1.0
  Mg  Mg734  1  0.08333333  0.33333333  0.91666667  1.0
  Sc  Sc735  1  0.08333333  0.66666667  0.25000000  1
  Mg  Mg736  1  0.08333333  0.66666667  0.58333333  1.0
  Sc  Sc737  1  0.08333333  0.66666667  0.91666667  1
  Sc  Sc738  1  0.41666667  0.00000000  0.25000000  1
  Sc  Sc739  1  0.41666667  0.00000000  0.58333333  1
  Mg  Mg740  1  0.41666667  0.00000000  0.91666667  1.0
  Sc  Sc741  1  0.41666667  0.33333333  0.25000000  1
  Mg  Mg742  1  0.41666667  0.33333333  0.58333333  1.0
  Mg  Mg743  1  0.41666667  0.33333333  0.91666667  1.0
  Mg  Mg744  1  0.41666667  0.66666667  0.25000000  1.0
  Mg  Mg745  1  0.41666667  0.66666667  0.58333333  1.0
  Mg  Mg746  1  0.41666667  0.66666667  0.91666667  1.0
  Mg  Mg747  1  0.75000000  0.00000000  0.25000000  1.0
  Mg  Mg748  1  0.75000000  0.00000000  0.58333333  1.0
  Sc  Sc749  1  0.75000000  0.00000000  0.91666667  1
  Mg  Mg750  1  0.75000000  0.33333333  0.25000000  1.0
  Mg  Mg751  1  0.75000000  0.33333333  0.58333333  1.0
  Mg  Mg752  1  0.75000000  0.33333333  0.91666667  1.0
  Mg  Mg753  1  0.75000000  0.66666667  0.25000000  1.0
  Mg  Mg754  1  0.75000000  0.66666667  0.58333333  1.0
  Mg  Mg755  1  0.75000000  0.66666667  0.91666667  1.0
  Mg  Mg756  1  0.08333333  0.08333333  0.16666667  1.0
  Mg  Mg757  1  0.08333333  0.08333333  0.50000000  1.0
  Mg  Mg758  1  0.08333333  0.08333333  0.83333333  1.0
  Sc  Sc759  1  0.08333333  0.41666667  0.16666667  1
  Sc  Sc760  1  0.08333333  0.41666667  0.50000000  1
  Mg  Mg761  1  0.08333333  0.41666667  0.83333333  1.0
  Mg  Mg762  1  0.08333333  0.75000000  0.16666667  1.0
  Sc  Sc763  1  0.08333333  0.75000000  0.50000000  1
  Mg  Mg764  1  0.08333333  0.75000000  0.83333333  1.0
  Mg  Mg765  1  0.41666667  0.08333333  0.16666667  1.0
  Sc  Sc766  1  0.41666667  0.08333333  0.50000000  1
  Sc  Sc767  1  0.41666667  0.08333333  0.83333333  1
  Mg  Mg768  1  0.41666667  0.41666667  0.16666667  1.0
  Mg  Mg769  1  0.41666667  0.41666667  0.50000000  1.0
  Mg  Mg770  1  0.41666667  0.41666667  0.83333333  1.0
  Mg  Mg771  1  0.41666667  0.75000000  0.16666667  1.0
  Sc  Sc772  1  0.41666667  0.75000000  0.50000000  1
  Mg  Mg773  1  0.41666667  0.75000000  0.83333333  1.0
  Mg  Mg774  1  0.75000000  0.08333333  0.16666667  1.0
  Mg  Mg775  1  0.75000000  0.08333333  0.50000000  1.0
  Mg  Mg776  1  0.75000000  0.08333333  0.83333333  1.0
  Mg  Mg777  1  0.75000000  0.41666667  0.16666667  1.0
  Mg  Mg778  1  0.75000000  0.41666667  0.50000000  1.0
  Mg  Mg779  1  0.75000000  0.41666667  0.83333333  1.0
  Mg  Mg780  1  0.75000000  0.75000000  0.16666667  1.0
  Mg  Mg781  1  0.75000000  0.75000000  0.50000000  1.0
  Mg  Mg782  1  0.75000000  0.75000000  0.83333333  1.0
  Sc  Sc783  1  0.25000000  0.25000000  0.16666667  1
  Mg  Mg784  1  0.25000000  0.25000000  0.50000000  1.0
  Sc  Sc785  1  0.25000000  0.25000000  0.83333333  1
  Mg  Mg786  1  0.25000000  0.58333333  0.16666667  1.0
  Sc  Sc787  1  0.25000000  0.58333333  0.50000000  1
  Mg  Mg788  1  0.25000000  0.58333333  0.83333333  1.0
  Mg  Mg789  1  0.25000000  0.91666667  0.16666667  1.0
  Mg  Mg790  1  0.25000000  0.91666667  0.50000000  1.0
  Mg  Mg791  1  0.25000000  0.91666667  0.83333333  1.0
  Mg  Mg792  1  0.58333333  0.25000000  0.16666667  1.0
  Mg  Mg793  1  0.58333333  0.25000000  0.50000000  1.0
  Sc  Sc794  1  0.58333333  0.25000000  0.83333333  1
  Mg  Mg795  1  0.58333333  0.58333333  0.16666667  1.0
  Mg  Mg796  1  0.58333333  0.58333333  0.50000000  1.0
  Sc  Sc797  1  0.58333333  0.58333333  0.83333333  1
  Mg  Mg798  1  0.58333333  0.91666667  0.16666667  1.0
  Mg  Mg799  1  0.58333333  0.91666667  0.50000000  1.0
  Mg  Mg800  1  0.58333333  0.91666667  0.83333333  1.0
  Mg  Mg801  1  0.91666667  0.25000000  0.16666667  1.0
  Mg  Mg802  1  0.91666667  0.25000000  0.50000000  1.0
  Mg  Mg803  1  0.91666667  0.25000000  0.83333333  1.0
  Mg  Mg804  1  0.91666667  0.58333333  0.16666667  1.0
  Mg  Mg805  1  0.91666667  0.58333333  0.50000000  1.0
  Mg  Mg806  1  0.91666667  0.58333333  0.83333333  1.0
  Sc  Sc807  1  0.91666667  0.91666667  0.16666667  1
  Sc  Sc808  1  0.91666667  0.91666667  0.50000000  1
  Sc  Sc809  1  0.91666667  0.91666667  0.83333333  1
  Mg  Mg810  1  0.25000000  0.08333333  0.00000000  1.0
  Mg  Mg811  1  0.25000000  0.08333333  0.33333333  1.0
  Mg  Mg812  1  0.25000000  0.08333333  0.66666667  1.0
  Mg  Mg813  1  0.25000000  0.41666667  0.00000000  1.0
  Mg  Mg814  1  0.25000000  0.41666667  0.33333333  1.0
  Mg  Mg815  1  0.25000000  0.41666667  0.66666667  1.0
  Sc  Sc816  1  0.25000000  0.75000000  0.00000000  1
  Sc  Sc817  1  0.25000000  0.75000000  0.33333333  1
  Sc  Sc818  1  0.25000000  0.75000000  0.66666667  1
  Mg  Mg819  1  0.58333333  0.08333333  1.00000000  1.0
  Sc  Sc820  1  0.58333333  0.08333333  0.33333333  1
  Mg  Mg821  1  0.58333333  0.08333333  0.66666667  1.0
  Sc  Sc822  1  0.58333333  0.41666667  0.00000000  1
  Sc  Sc823  1  0.58333333  0.41666667  0.33333333  1
  Mg  Mg824  1  0.58333333  0.41666667  0.66666667  1.0
  Mg  Mg825  1  0.58333333  0.75000000  0.00000000  1.0
  Mg  Mg826  1  0.58333333  0.75000000  0.33333333  1.0
  Mg  Mg827  1  0.58333333  0.75000000  0.66666667  1.0
  Mg  Mg828  1  0.91666667  0.08333333  0.00000000  1.0
  Mg  Mg829  1  0.91666667  0.08333333  0.33333333  1.0
  Mg  Mg830  1  0.91666667  0.08333333  0.66666667  1.0
  Sc  Sc831  1  0.91666667  0.41666667  1.00000000  1
  Mg  Mg832  1  0.91666667  0.41666667  0.33333333  1.0
  Mg  Mg833  1  0.91666667  0.41666667  0.66666667  1.0
  Mg  Mg834  1  0.91666667  0.75000000  0.00000000  1.0
  Mg  Mg835  1  0.91666667  0.75000000  0.33333333  1.0
  Sc  Sc836  1  0.91666667  0.75000000  0.66666667  1
  Sc  Sc837  1  0.08333333  0.25000000  0.00000000  1
  Mg  Mg838  1  0.08333333  0.25000000  0.33333333  1.0
  Sc  Sc839  1  0.08333333  0.25000000  0.66666667  1
  Sc  Sc840  1  0.08333333  0.58333333  1.00000000  1
  Sc  Sc841  1  0.08333333  0.58333333  0.33333333  1
  Mg  Mg842  1  0.08333333  0.58333333  0.66666667  1.0
  Sc  Sc843  1  0.08333333  0.91666667  0.00000000  1
  Mg  Mg844  1  0.08333333  0.91666667  0.33333333  1.0
  Sc  Sc845  1  0.08333333  0.91666667  0.66666667  1
  Sc  Sc846  1  0.41666667  0.25000000  0.00000000  1
  Mg  Mg847  1  0.41666667  0.25000000  0.33333333  1.0
  Mg  Mg848  1  0.41666667  0.25000000  0.66666667  1.0
  Mg  Mg849  1  0.41666667  0.58333333  0.00000000  1.0
  Sc  Sc850  1  0.41666667  0.58333333  0.33333333  1
  Mg  Mg851  1  0.41666667  0.58333333  0.66666667  1.0
  Mg  Mg852  1  0.41666667  0.91666667  0.00000000  1.0
  Sc  Sc853  1  0.41666667  0.91666667  0.33333333  1
  Mg  Mg854  1  0.41666667  0.91666667  0.66666667  1.0
  Mg  Mg855  1  0.75000000  0.25000000  0.00000000  1.0
  Sc  Sc856  1  0.75000000  0.25000000  0.33333333  1
  Mg  Mg857  1  0.75000000  0.25000000  0.66666667  1.0
  Mg  Mg858  1  0.75000000  0.58333333  0.00000000  1.0
  Mg  Mg859  1  0.75000000  0.58333333  0.33333333  1.0
  Mg  Mg860  1  0.75000000  0.58333333  0.66666667  1.0
  Mg  Mg861  1  0.75000000  0.91666667  0.00000000  1.0
  Mg  Mg862  1  0.75000000  0.91666667  0.33333333  1.0
  Sc  Sc863  1  0.75000000  0.91666667  0.66666667  1
  Be  Be864  1  0.08333333  0.08333333  0.00000000  1.0
  Be  Be865  1  0.08333333  0.08333333  0.33333333  1.0
  Be  Be866  1  0.08333333  0.08333333  0.66666667  1.0
  Be  Be867  1  0.08333333  0.41666667  0.00000000  1.0
  Be  Be868  1  0.08333333  0.41666667  0.33333333  1.0
  Be  Be869  1  0.08333333  0.41666667  0.66666667  1.0
  Be  Be870  1  0.08333333  0.75000000  0.00000000  1.0
  Be  Be871  1  0.08333333  0.75000000  0.33333333  1.0
  Be  Be872  1  0.08333333  0.75000000  0.66666667  1.0
  Be  Be873  1  0.41666667  0.08333333  0.00000000  1.0
  Be  Be874  1  0.41666667  0.08333333  0.33333333  1.0
  Be  Be875  1  0.41666667  0.08333333  0.66666667  1.0
  Be  Be876  1  0.41666667  0.41666667  0.00000000  1.0
  Be  Be877  1  0.41666667  0.41666667  0.33333333  1.0
  Be  Be878  1  0.41666667  0.41666667  0.66666667  1.0
  Be  Be879  1  0.41666667  0.75000000  0.00000000  1.0
  Be  Be880  1  0.41666667  0.75000000  0.33333333  1.0
  Be  Be881  1  0.41666667  0.75000000  0.66666667  1.0
  Be  Be882  1  0.75000000  0.08333333  0.00000000  1.0
  Be  Be883  1  0.75000000  0.08333333  0.33333333  1.0
  Be  Be884  1  0.75000000  0.08333333  0.66666667  1.0
  Be  Be885  1  0.75000000  0.41666667  0.00000000  1.0
  Be  Be886  1  0.75000000  0.41666667  0.33333333  1.0
  Be  Be887  1  0.75000000  0.41666667  0.66666667  1.0
  Be  Be888  1  0.75000000  0.75000000  0.00000000  1.0
  Be  Be889  1  0.75000000  0.75000000  0.33333333  1.0
  Be  Be890  1  0.75000000  0.75000000  0.66666667  1.0
  Be  Be891  1  0.25000000  0.25000000  0.00000000  1.0
  Be  Be892  1  0.25000000  0.25000000  0.33333333  1.0
  Be  Be893  1  0.25000000  0.25000000  0.66666667  1.0
  Be  Be894  1  0.25000000  0.58333333  0.00000000  1.0
  Be  Be895  1  0.25000000  0.58333333  0.33333333  1.0
  Be  Be896  1  0.25000000  0.58333333  0.66666667  1.0
  Be  Be897  1  0.25000000  0.91666667  0.00000000  1.0
  Be  Be898  1  0.25000000  0.91666667  0.33333333  1.0
  Be  Be899  1  0.25000000  0.91666667  0.66666667  1.0
  Be  Be900  1  0.58333333  0.25000000  1.00000000  1.0
  Be  Be901  1  0.58333333  0.25000000  0.33333333  1.0
  Be  Be902  1  0.58333333  0.25000000  0.66666667  1.0
  Be  Be903  1  0.58333333  0.58333333  0.00000000  1.0
  Be  Be904  1  0.58333333  0.58333333  0.33333333  1.0
  Be  Be905  1  0.58333333  0.58333333  0.66666667  1.0
  Be  Be906  1  0.58333333  0.91666667  0.00000000  1.0
  Be  Be907  1  0.58333333  0.91666667  0.33333333  1.0
  Be  Be908  1  0.58333333  0.91666667  0.66666667  1.0
  Be  Be909  1  0.91666667  0.25000000  0.00000000  1.0
  Be  Be910  1  0.91666667  0.25000000  0.33333333  1.0
  Be  Be911  1  0.91666667  0.25000000  0.66666667  1.0
  Be  Be912  1  0.91666667  0.58333333  0.00000000  1.0
  Be  Be913  1  0.91666667  0.58333333  0.33333333  1.0
  Be  Be914  1  0.91666667  0.58333333  0.66666667  1.0
  Be  Be915  1  0.91666667  0.91666667  0.00000000  1.0
  Be  Be916  1  0.91666667  0.91666667  0.33333333  1.0
  Be  Be917  1  0.91666667  0.91666667  0.66666667  1.0
  Be  Be918  1  0.25000000  0.08333333  0.16666667  1.0
  Be  Be919  1  0.25000000  0.08333333  0.50000000  1.0
  Be  Be920  1  0.25000000  0.08333333  0.83333333  1.0
  Be  Be921  1  0.25000000  0.41666667  0.16666667  1.0
  Be  Be922  1  0.25000000  0.41666667  0.50000000  1.0
  Be  Be923  1  0.25000000  0.41666667  0.83333333  1.0
  Be  Be924  1  0.25000000  0.75000000  0.16666667  1.0
  Be  Be925  1  0.25000000  0.75000000  0.50000000  1.0
  Be  Be926  1  0.25000000  0.75000000  0.83333333  1.0
  Be  Be927  1  0.58333333  0.08333333  0.16666667  1.0
  Be  Be928  1  0.58333333  0.08333333  0.50000000  1.0
  Be  Be929  1  0.58333333  0.08333333  0.83333333  1.0
  Be  Be930  1  0.58333333  0.41666667  0.16666667  1.0
  Be  Be931  1  0.58333333  0.41666667  0.50000000  1.0
  Be  Be932  1  0.58333333  0.41666667  0.83333333  1.0
  Be  Be933  1  0.58333333  0.75000000  0.16666667  1.0
  Be  Be934  1  0.58333333  0.75000000  0.50000000  1.0
  Be  Be935  1  0.58333333  0.75000000  0.83333333  1.0
  Be  Be936  1  0.91666667  0.08333333  0.16666667  1.0
  Be  Be937  1  0.91666667  0.08333333  0.50000000  1.0
  Be  Be938  1  0.91666667  0.08333333  0.83333333  1.0
  Be  Be939  1  0.91666667  0.41666667  0.16666667  1.0
  Be  Be940  1  0.91666667  0.41666667  0.50000000  1.0
  Be  Be941  1  0.91666667  0.41666667  0.83333333  1.0
  Be  Be942  1  0.91666667  0.75000000  0.16666667  1.0
  Be  Be943  1  0.91666667  0.75000000  0.50000000  1.0
  Be  Be944  1  0.91666667  0.75000000  0.83333333  1.0
  Be  Be945  1  0.08333333  0.25000000  0.16666667  1.0
  Be  Be946  1  0.08333333  0.25000000  0.50000000  1.0
  Be  Be947  1  0.08333333  0.25000000  0.83333333  1.0
  Be  Be948  1  0.08333333  0.58333333  0.16666667  1.0
  Be  Be949  1  0.08333333  0.58333333  0.50000000  1.0
  Be  Be950  1  0.08333333  0.58333333  0.83333333  1.0
  Be  Be951  1  0.08333333  0.91666667  0.16666667  1.0
  Be  Be952  1  0.08333333  0.91666667  0.50000000  1.0
  Be  Be953  1  0.08333333  0.91666667  0.83333333  1.0
  Be  Be954  1  0.41666667  0.25000000  0.16666667  1.0
  Be  Be955  1  0.41666667  0.25000000  0.50000000  1.0
  Be  Be956  1  0.41666667  0.25000000  0.83333333  1.0
  Be  Be957  1  0.41666667  0.58333333  0.16666667  1.0
  Be  Be958  1  0.41666667  0.58333333  0.50000000  1.0
  Be  Be959  1  0.41666667  0.58333333  0.83333333  1.0
  Be  Be960  1  0.41666667  0.91666667  0.16666667  1.0
  Be  Be961  1  0.41666667  0.91666667  0.50000000  1.0
  Be  Be962  1  0.41666667  0.91666667  0.83333333  1.0
  Be  Be963  1  0.75000000  0.25000000  0.16666667  1.0
  Be  Be964  1  0.75000000  0.25000000  0.50000000  1.0
  Be  Be965  1  0.75000000  0.25000000  0.83333333  1.0
  Be  Be966  1  0.75000000  0.58333333  0.16666667  1.0
  Be  Be967  1  0.75000000  0.58333333  0.50000000  1.0
  Be  Be968  1  0.75000000  0.58333333  0.83333333  1.0
  Be  Be969  1  0.75000000  0.91666667  0.16666667  1.0
  Be  Be970  1  0.75000000  0.91666667  0.50000000  1.0
  Be  Be971  1  0.75000000  0.91666667  0.83333333  1.0
  Be  Be972  1  0.08333333  0.00000000  0.08333333  1.0
  Be  Be973  1  0.08333333  0.00000000  0.41666667  1.0
  Be  Be974  1  0.08333333  0.00000000  0.75000000  1.0
  Be  Be975  1  0.08333333  0.33333333  0.08333333  1.0
  Be  Be976  1  0.08333333  0.33333333  0.41666667  1.0
  Be  Be977  1  0.08333333  0.33333333  0.75000000  1.0
  Be  Be978  1  0.08333333  0.66666667  0.08333333  1.0
  Be  Be979  1  0.08333333  0.66666667  0.41666667  1.0
  Be  Be980  1  0.08333333  0.66666667  0.75000000  1.0
  Be  Be981  1  0.41666667  0.00000000  0.08333333  1.0
  Be  Be982  1  0.41666667  0.00000000  0.41666667  1.0
  Be  Be983  1  0.41666667  0.00000000  0.75000000  1.0
  Be  Be984  1  0.41666667  0.33333333  0.08333333  1.0
  Be  Be985  1  0.41666667  0.33333333  0.41666667  1.0
  Be  Be986  1  0.41666667  0.33333333  0.75000000  1.0
  Be  Be987  1  0.41666667  0.66666667  0.08333333  1.0
  Be  Be988  1  0.41666667  0.66666667  0.41666667  1.0
  Be  Be989  1  0.41666667  0.66666667  0.75000000  1.0
  Be  Be990  1  0.75000000  0.00000000  0.08333333  1.0
  Be  Be991  1  0.75000000  0.00000000  0.41666667  1.0
  Be  Be992  1  0.75000000  0.00000000  0.75000000  1.0
  Be  Be993  1  0.75000000  0.33333333  0.08333333  1.0
  Be  Be994  1  0.75000000  0.33333333  0.41666667  1.0
  Be  Be995  1  0.75000000  0.33333333  0.75000000  1.0
  Be  Be996  1  0.75000000  0.66666667  0.08333333  1.0
  Be  Be997  1  0.75000000  0.66666667  0.41666667  1.0
  Be  Be998  1  0.75000000  0.66666667  0.75000000  1.0
  Be  Be999  1  0.25000000  0.16666667  0.08333333  1.0
  Be  Be1000  1  0.25000000  0.16666667  0.41666667  1.0
  Be  Be1001  1  0.25000000  0.16666667  0.75000000  1.0
  Be  Be1002  1  0.25000000  0.50000000  0.08333333  1.0
  Be  Be1003  1  0.25000000  0.50000000  0.41666667  1.0
  Be  Be1004  1  0.25000000  0.50000000  0.75000000  1.0
  Be  Be1005  1  0.25000000  0.83333333  0.08333333  1.0
  Be  Be1006  1  0.25000000  0.83333333  0.41666667  1.0
  Be  Be1007  1  0.25000000  0.83333333  0.75000000  1.0
  Be  Be1008  1  0.58333333  0.16666667  0.08333333  1.0
  Be  Be1009  1  0.58333333  0.16666667  0.41666667  1.0
  Be  Be1010  1  0.58333333  0.16666667  0.75000000  1.0
  Be  Be1011  1  0.58333333  0.50000000  0.08333333  1.0
  Be  Be1012  1  0.58333333  0.50000000  0.41666667  1.0
  Be  Be1013  1  0.58333333  0.50000000  0.75000000  1.0
  Be  Be1014  1  0.58333333  0.83333333  0.08333333  1.0
  Be  Be1015  1  0.58333333  0.83333333  0.41666667  1.0
  Be  Be1016  1  0.58333333  0.83333333  0.75000000  1.0
  Be  Be1017  1  0.91666667  0.16666667  0.08333333  1.0
  Be  Be1018  1  0.91666667  0.16666667  0.41666667  1.0
  Be  Be1019  1  0.91666667  0.16666667  0.75000000  1.0
  Be  Be1020  1  0.91666667  0.50000000  0.08333333  1.0
  Be  Be1021  1  0.91666667  0.50000000  0.41666667  1.0
  Be  Be1022  1  0.91666667  0.50000000  0.75000000  1.0
  Be  Be1023  1  0.91666667  0.83333333  0.08333333  1.0
  Be  Be1024  1  0.91666667  0.83333333  0.41666667  1.0
  Be  Be1025  1  0.91666667  0.83333333  0.75000000  1.0
  Be  Be1026  1  0.25000000  0.00000000  0.25000000  1.0
  Be  Be1027  1  0.25000000  0.00000000  0.58333333  1.0
  Be  Be1028  1  0.25000000  0.00000000  0.91666667  1.0
  Be  Be1029  1  0.25000000  0.33333333  0.25000000  1.0
  Be  Be1030  1  0.25000000  0.33333333  0.58333333  1.0
  Be  Be1031  1  0.25000000  0.33333333  0.91666667  1.0
  Be  Be1032  1  0.25000000  0.66666667  0.25000000  1.0
  Be  Be1033  1  0.25000000  0.66666667  0.58333333  1.0
  Be  Be1034  1  0.25000000  0.66666667  0.91666667  1.0
  Be  Be1035  1  0.58333333  0.00000000  0.25000000  1.0
  Be  Be1036  1  0.58333333  0.00000000  0.58333333  1.0
  Be  Be1037  1  0.58333333  0.00000000  0.91666667  1.0
  Be  Be1038  1  0.58333333  0.33333333  0.25000000  1.0
  Be  Be1039  1  0.58333333  0.33333333  0.58333333  1.0
  Be  Be1040  1  0.58333333  0.33333333  0.91666667  1.0
  Be  Be1041  1  0.58333333  0.66666667  0.25000000  1.0
  Be  Be1042  1  0.58333333  0.66666667  0.58333333  1.0
  Be  Be1043  1  0.58333333  0.66666667  0.91666667  1.0
  Be  Be1044  1  0.91666667  0.00000000  0.25000000  1.0
  Be  Be1045  1  0.91666667  0.00000000  0.58333333  1.0
  Be  Be1046  1  0.91666667  0.00000000  0.91666667  1.0
  Be  Be1047  1  0.91666667  0.33333333  0.25000000  1.0
  Be  Be1048  1  0.91666667  0.33333333  0.58333333  1.0
  Be  Be1049  1  0.91666667  0.33333333  0.91666667  1.0
  Be  Be1050  1  0.91666667  0.66666667  0.25000000  1.0
  Be  Be1051  1  0.91666667  0.66666667  0.58333333  1.0
  Be  Be1052  1  0.91666667  0.66666667  0.91666667  1.0
  Be  Be1053  1  0.08333333  0.16666667  0.25000000  1.0
  Be  Be1054  1  0.08333333  0.16666667  0.58333333  1.0
  Be  Be1055  1  0.08333333  0.16666667  0.91666667  1.0
  Be  Be1056  1  0.08333333  0.50000000  0.25000000  1.0
  Be  Be1057  1  0.08333333  0.50000000  0.58333333  1.0
  Be  Be1058  1  0.08333333  0.50000000  0.91666667  1.0
  Be  Be1059  1  0.08333333  0.83333333  0.25000000  1.0
  Be  Be1060  1  0.08333333  0.83333333  0.58333333  1.0
  Be  Be1061  1  0.08333333  0.83333333  0.91666667  1.0
  Be  Be1062  1  0.41666667  0.16666667  0.25000000  1.0
  Be  Be1063  1  0.41666667  0.16666667  0.58333333  1.0
  Be  Be1064  1  0.41666667  0.16666667  0.91666667  1.0
  Be  Be1065  1  0.41666667  0.50000000  0.25000000  1.0
  Be  Be1066  1  0.41666667  0.50000000  0.58333333  1.0
  Be  Be1067  1  0.41666667  0.50000000  0.91666667  1.0
  Be  Be1068  1  0.41666667  0.83333333  0.25000000  1.0
  Be  Be1069  1  0.41666667  0.83333333  0.58333333  1.0
  Be  Be1070  1  0.41666667  0.83333333  0.91666667  1.0
  Be  Be1071  1  0.75000000  0.16666667  0.25000000  1.0
  Be  Be1072  1  0.75000000  0.16666667  0.58333333  1.0
  Be  Be1073  1  0.75000000  0.16666667  0.91666667  1.0
  Be  Be1074  1  0.75000000  0.50000000  0.25000000  1.0
  Be  Be1075  1  0.75000000  0.50000000  0.58333333  1.0
  Be  Be1076  1  0.75000000  0.50000000  0.91666667  1.0
  Be  Be1077  1  0.75000000  0.83333333  0.25000000  1.0
  Be  Be1078  1  0.75000000  0.83333333  0.58333333  1.0
  Be  Be1079  1  0.75000000  0.83333333  0.91666667  1.0
  Be  Be1080  1  0.00000000  0.08333333  0.08333333  1.0
  Be  Be1081  1  0.00000000  0.08333333  0.41666667  1.0
  Be  Be1082  1  0.00000000  0.08333333  0.75000000  1.0
  Be  Be1083  1  0.00000000  0.41666667  0.08333333  1.0
  Be  Be1084  1  0.00000000  0.41666667  0.41666667  1.0
  Be  Be1085  1  0.00000000  0.41666667  0.75000000  1.0
  Be  Be1086  1  1.00000000  0.75000000  0.08333333  1.0
  Be  Be1087  1  1.00000000  0.75000000  0.41666667  1.0
  Be  Be1088  1  1.00000000  0.75000000  0.75000000  1.0
  Be  Be1089  1  0.33333333  0.08333333  0.08333333  1.0
  Be  Be1090  1  0.33333333  0.08333333  0.41666667  1.0
  Be  Be1091  1  0.33333333  0.08333333  0.75000000  1.0
  Be  Be1092  1  0.33333333  0.41666667  0.08333333  1.0
  Be  Be1093  1  0.33333333  0.41666667  0.41666667  1.0
  Be  Be1094  1  0.33333333  0.41666667  0.75000000  1.0
  Be  Be1095  1  0.33333333  0.75000000  0.08333333  1.0
  Be  Be1096  1  0.33333333  0.75000000  0.41666667  1.0
  Be  Be1097  1  0.33333333  0.75000000  0.75000000  1.0
  Be  Be1098  1  0.66666667  0.08333333  0.08333333  1.0
  Be  Be1099  1  0.66666667  0.08333333  0.41666667  1.0
  Be  Be1100  1  0.66666667  0.08333333  0.75000000  1.0
  Be  Be1101  1  0.66666667  0.41666667  0.08333333  1.0
  Be  Be1102  1  0.66666667  0.41666667  0.41666667  1.0
  Be  Be1103  1  0.66666667  0.41666667  0.75000000  1.0
  Be  Be1104  1  0.66666667  0.75000000  0.08333333  1.0
  Be  Be1105  1  0.66666667  0.75000000  0.41666667  1.0
  Be  Be1106  1  0.66666667  0.75000000  0.75000000  1.0
  Be  Be1107  1  0.16666667  0.25000000  0.08333333  1.0
  Be  Be1108  1  0.16666667  0.25000000  0.41666667  1.0
  Be  Be1109  1  0.16666667  0.25000000  0.75000000  1.0
  Be  Be1110  1  0.16666667  0.58333333  0.08333333  1.0
  Be  Be1111  1  0.16666667  0.58333333  0.41666667  1.0
  Be  Be1112  1  0.16666667  0.58333333  0.75000000  1.0
  Be  Be1113  1  0.16666667  0.91666667  0.08333333  1.0
  Be  Be1114  1  0.16666667  0.91666667  0.41666667  1.0
  Be  Be1115  1  0.16666667  0.91666667  0.75000000  1.0
  Be  Be1116  1  0.50000000  0.25000000  0.08333333  1.0
  Be  Be1117  1  0.50000000  0.25000000  0.41666667  1.0
  Be  Be1118  1  0.50000000  0.25000000  0.75000000  1.0
  Be  Be1119  1  0.50000000  0.58333333  0.08333333  1.0
  Be  Be1120  1  0.50000000  0.58333333  0.41666667  1.0
  Be  Be1121  1  0.50000000  0.58333333  0.75000000  1.0
  Be  Be1122  1  0.50000000  0.91666667  0.08333333  1.0
  Be  Be1123  1  0.50000000  0.91666667  0.41666667  1.0
  Be  Be1124  1  0.50000000  0.91666667  0.75000000  1.0
  Be  Be1125  1  0.83333333  0.25000000  0.08333333  1.0
  Be  Be1126  1  0.83333333  0.25000000  0.41666667  1.0
  Be  Be1127  1  0.83333333  0.25000000  0.75000000  1.0
  Be  Be1128  1  0.83333333  0.58333333  0.08333333  1.0
  Be  Be1129  1  0.83333333  0.58333333  0.41666667  1.0
  Be  Be1130  1  0.83333333  0.58333333  0.75000000  1.0
  Be  Be1131  1  0.83333333  0.91666667  0.08333333  1.0
  Be  Be1132  1  0.83333333  0.91666667  0.41666667  1.0
  Be  Be1133  1  0.83333333  0.91666667  0.75000000  1.0
  Be  Be1134  1  0.16666667  0.08333333  0.25000000  1.0
  Be  Be1135  1  0.16666667  0.08333333  0.58333333  1.0
  Be  Be1136  1  0.16666667  0.08333333  0.91666667  1.0
  Be  Be1137  1  0.16666667  0.41666667  0.25000000  1.0
  Be  Be1138  1  0.16666667  0.41666667  0.58333333  1.0
  Be  Be1139  1  0.16666667  0.41666667  0.91666667  1.0
  Be  Be1140  1  0.16666667  0.75000000  0.25000000  1.0
  Be  Be1141  1  0.16666667  0.75000000  0.58333333  1.0
  Be  Be1142  1  0.16666667  0.75000000  0.91666667  1.0
  Be  Be1143  1  0.50000000  0.08333333  0.25000000  1.0
  Be  Be1144  1  0.50000000  0.08333333  0.58333333  1.0
  Be  Be1145  1  0.50000000  0.08333333  0.91666667  1.0
  Be  Be1146  1  0.50000000  0.41666667  0.25000000  1.0
  Be  Be1147  1  0.50000000  0.41666667  0.58333333  1.0
  Be  Be1148  1  0.50000000  0.41666667  0.91666667  1.0
  Be  Be1149  1  0.50000000  0.75000000  0.25000000  1.0
  Be  Be1150  1  0.50000000  0.75000000  0.58333333  1.0
  Be  Be1151  1  0.50000000  0.75000000  0.91666667  1.0
  Be  Be1152  1  0.83333333  0.08333333  0.25000000  1.0
  Be  Be1153  1  0.83333333  0.08333333  0.58333333  1.0
  Be  Be1154  1  0.83333333  0.08333333  0.91666667  1.0
  Be  Be1155  1  0.83333333  0.41666667  0.25000000  1.0
  Be  Be1156  1  0.83333333  0.41666667  0.58333333  1.0
  Be  Be1157  1  0.83333333  0.41666667  0.91666667  1.0
  Be  Be1158  1  0.83333333  0.75000000  0.25000000  1.0
  Be  Be1159  1  0.83333333  0.75000000  0.58333333  1.0
  Be  Be1160  1  0.83333333  0.75000000  0.91666667  1.0
  Be  Be1161  1  0.00000000  0.25000000  0.25000000  1.0
  Be  Be1162  1  0.00000000  0.25000000  0.58333333  1.0
  Be  Be1163  1  0.00000000  0.25000000  0.91666667  1.0
  Be  Be1164  1  0.00000000  0.58333333  0.25000000  1.0
  Be  Be1165  1  0.00000000  0.58333333  0.58333333  1.0
  Be  Be1166  1  0.00000000  0.58333333  0.91666667  1.0
  Be  Be1167  1  0.00000000  0.91666667  0.25000000  1.0
  Be  Be1168  1  0.00000000  0.91666667  0.58333333  1.0
  Be  Be1169  1  0.00000000  0.91666667  0.91666667  1.0
  Be  Be1170  1  0.33333333  0.25000000  0.25000000  1.0
  Be  Be1171  1  0.33333333  0.25000000  0.58333333  1.0
  Be  Be1172  1  0.33333333  0.25000000  0.91666667  1.0
  Be  Be1173  1  0.33333333  0.58333333  0.25000000  1.0
  Be  Be1174  1  0.33333333  0.58333333  0.58333333  1.0
  Be  Be1175  1  0.33333333  0.58333333  0.91666667  1.0
  Be  Be1176  1  0.33333333  0.91666667  0.25000000  1.0
  Be  Be1177  1  0.33333333  0.91666667  0.58333333  1.0
  Be  Be1178  1  0.33333333  0.91666667  0.91666667  1.0
  Be  Be1179  1  0.66666667  0.25000000  0.25000000  1.0
  Be  Be1180  1  0.66666667  0.25000000  0.58333333  1.0
  Be  Be1181  1  0.66666667  0.25000000  0.91666667  1.0
  Be  Be1182  1  0.66666667  0.58333333  0.25000000  1.0
  Be  Be1183  1  0.66666667  0.58333333  0.58333333  1.0
  Be  Be1184  1  0.66666667  0.58333333  0.91666667  1.0
  Be  Be1185  1  0.66666667  0.91666667  0.25000000  1.0
  Be  Be1186  1  0.66666667  0.91666667  0.58333333  1.0
  Be  Be1187  1  0.66666667  0.91666667  0.91666667  1.0
  Be  Be1188  1  0.00000000  0.00000000  0.00000000  1.0
  Be  Be1189  1  0.00000000  0.00000000  0.33333333  1.0
  Be  Be1190  1  0.00000000  0.00000000  0.66666667  1.0
  Be  Be1191  1  0.00000000  0.33333333  0.00000000  1.0
  Be  Be1192  1  0.00000000  0.33333333  0.33333333  1.0
  Be  Be1193  1  0.00000000  0.33333333  0.66666667  1.0
  Be  Be1194  1  0.00000000  0.66666667  0.00000000  1.0
  Be  Be1195  1  0.00000000  0.66666667  0.33333333  1.0
  Be  Be1196  1  0.00000000  0.66666667  0.66666667  1.0
  Be  Be1197  1  0.33333333  0.00000000  0.00000000  1.0
  Be  Be1198  1  0.33333333  0.00000000  0.33333333  1.0
  Be  Be1199  1  0.33333333  0.00000000  0.66666667  1.0
  Be  Be1200  1  0.33333333  0.33333333  0.00000000  1.0
  Be  Be1201  1  0.33333333  0.33333333  0.33333333  1.0
  Be  Be1202  1  0.33333333  0.33333333  0.66666667  1.0
  Be  Be1203  1  0.33333333  0.66666667  0.00000000  1.0
  Be  Be1204  1  0.33333333  0.66666667  0.33333333  1.0
  Be  Be1205  1  0.33333333  0.66666667  0.66666667  1.0
  Be  Be1206  1  0.66666667  0.00000000  0.00000000  1.0
  Be  Be1207  1  0.66666667  0.00000000  0.33333333  1.0
  Be  Be1208  1  0.66666667  0.00000000  0.66666667  1.0
  Be  Be1209  1  0.66666667  0.33333333  0.00000000  1.0
  Be  Be1210  1  0.66666667  0.33333333  0.33333333  1.0
  Be  Be1211  1  0.66666667  0.33333333  0.66666667  1.0
  Be  Be1212  1  0.66666667  0.66666667  0.00000000  1.0
  Be  Be1213  1  0.66666667  0.66666667  0.33333333  1.0
  Be  Be1214  1  0.66666667  0.66666667  0.66666667  1.0
  Be  Be1215  1  0.16666667  0.16666667  0.00000000  1.0
  Be  Be1216  1  0.16666667  0.16666667  0.33333333  1.0
  Be  Be1217  1  0.16666667  0.16666667  0.66666667  1.0
  Be  Be1218  1  0.16666667  0.50000000  1.00000000  1.0
  Be  Be1219  1  0.16666667  0.50000000  0.33333333  1.0
  Be  Be1220  1  0.16666667  0.50000000  0.66666667  1.0
  Be  Be1221  1  0.16666667  0.83333333  0.00000000  1.0
  Be  Be1222  1  0.16666667  0.83333333  0.33333333  1.0
  Be  Be1223  1  0.16666667  0.83333333  0.66666667  1.0
  Be  Be1224  1  0.50000000  0.16666667  1.00000000  1.0
  Be  Be1225  1  0.50000000  0.16666667  0.33333333  1.0
  Be  Be1226  1  0.50000000  0.16666667  0.66666667  1.0
  Be  Be1227  1  0.50000000  0.50000000  0.00000000  1.0
  Be  Be1228  1  0.50000000  0.50000000  0.33333333  1.0
  Be  Be1229  1  0.50000000  0.50000000  0.66666667  1.0
  Be  Be1230  1  0.50000000  0.83333333  0.00000000  1.0
  Be  Be1231  1  0.50000000  0.83333333  0.33333333  1.0
  Be  Be1232  1  0.50000000  0.83333333  0.66666667  1.0
  Be  Be1233  1  0.83333333  0.16666667  0.00000000  1.0
  Be  Be1234  1  0.83333333  0.16666667  0.33333333  1.0
  Be  Be1235  1  0.83333333  0.16666667  0.66666667  1.0
  Be  Be1236  1  0.83333333  0.50000000  1.00000000  1.0
  Be  Be1237  1  0.83333333  0.50000000  0.33333333  1.0
  Be  Be1238  1  0.83333333  0.50000000  0.66666667  1.0
  Be  Be1239  1  0.83333333  0.83333333  0.00000000  1.0
  Be  Be1240  1  0.83333333  0.83333333  0.33333333  1.0
  Be  Be1241  1  0.83333333  0.83333333  0.66666667  1.0
  Be  Be1242  1  0.16666667  0.00000000  0.16666667  1.0
  Be  Be1243  1  0.16666667  0.00000000  0.50000000  1.0
  Be  Be1244  1  0.16666667  0.00000000  0.83333333  1.0
  Be  Be1245  1  0.16666667  0.33333333  0.16666667  1.0
  Be  Be1246  1  0.16666667  0.33333333  0.50000000  1.0
  Be  Be1247  1  0.16666667  0.33333333  0.83333333  1.0
  Be  Be1248  1  0.16666667  0.66666667  0.16666667  1.0
  Be  Be1249  1  0.16666667  0.66666667  0.50000000  1.0
  Be  Be1250  1  0.16666667  0.66666667  0.83333333  1.0
  Be  Be1251  1  0.50000000  0.00000000  0.16666667  1.0
  Be  Be1252  1  0.50000000  0.00000000  0.50000000  1.0
  Be  Be1253  1  0.50000000  0.00000000  0.83333333  1.0
  Be  Be1254  1  0.50000000  0.33333333  0.16666667  1.0
  Be  Be1255  1  0.50000000  0.33333333  0.50000000  1.0
  Be  Be1256  1  0.50000000  0.33333333  0.83333333  1.0
  Be  Be1257  1  0.50000000  0.66666667  0.16666667  1.0
  Be  Be1258  1  0.50000000  0.66666667  0.50000000  1.0
  Be  Be1259  1  0.50000000  0.66666667  0.83333333  1.0
  Be  Be1260  1  0.83333333  0.00000000  0.16666667  1.0
  Be  Be1261  1  0.83333333  0.00000000  0.50000000  1.0
  Be  Be1262  1  0.83333333  0.00000000  0.83333333  1.0
  Be  Be1263  1  0.83333333  0.33333333  0.16666667  1.0
  Be  Be1264  1  0.83333333  0.33333333  0.50000000  1.0
  Be  Be1265  1  0.83333333  0.33333333  0.83333333  1.0
  Be  Be1266  1  0.83333333  0.66666667  0.16666667  1.0
  Be  Be1267  1  0.83333333  0.66666667  0.50000000  1.0
  Be  Be1268  1  0.83333333  0.66666667  0.83333333  1.0
  Be  Be1269  1  0.00000000  0.16666667  0.16666667  1.0
  Be  Be1270  1  0.00000000  0.16666667  0.50000000  1.0
  Be  Be1271  1  0.00000000  0.16666667  0.83333333  1.0
  Be  Be1272  1  0.00000000  0.50000000  0.16666667  1.0
  Be  Be1273  1  0.00000000  0.50000000  0.50000000  1.0
  Be  Be1274  1  0.00000000  0.50000000  0.83333333  1.0
  Be  Be1275  1  0.00000000  0.83333333  0.16666667  1.0
  Be  Be1276  1  0.00000000  0.83333333  0.50000000  1.0
  Be  Be1277  1  0.00000000  0.83333333  0.83333333  1.0
  Be  Be1278  1  0.33333333  0.16666667  0.16666667  1.0
  Be  Be1279  1  0.33333333  0.16666667  0.50000000  1.0
  Be  Be1280  1  0.33333333  0.16666667  0.83333333  1.0
  Be  Be1281  1  0.33333333  0.50000000  0.16666667  1.0
  Be  Be1282  1  0.33333333  0.50000000  0.50000000  1.0
  Be  Be1283  1  0.33333333  0.50000000  0.83333333  1.0
  Be  Be1284  1  0.33333333  0.83333333  0.16666667  1.0
  Be  Be1285  1  0.33333333  0.83333333  0.50000000  1.0
  Be  Be1286  1  0.33333333  0.83333333  0.83333333  1.0
  Be  Be1287  1  0.66666667  0.16666667  0.16666667  1.0
  Be  Be1288  1  0.66666667  0.16666667  0.50000000  1.0
  Be  Be1289  1  0.66666667  0.16666667  0.83333333  1.0
  Be  Be1290  1  0.66666667  0.50000000  0.16666667  1.0
  Be  Be1291  1  0.66666667  0.50000000  0.50000000  1.0
  Be  Be1292  1  0.66666667  0.50000000  0.83333333  1.0
  Be  Be1293  1  0.66666667  0.83333333  0.16666667  1.0
  Be  Be1294  1  0.66666667  0.83333333  0.50000000  1.0
  Be  Be1295  1  0.66666667  0.83333333  0.83333333  1.0
  Nb  Nb1296  1  0.29166667  0.20833333  0.20833333  1.0
  Nb  Nb1297  1  0.29166667  0.20833333  0.54166667  1.0
  Nb  Nb1298  1  0.29166667  0.20833333  0.87500000  1.0
  Nb  Nb1299  1  0.29166667  0.54166667  0.20833333  1.0
  Nb  Nb1300  1  0.29166667  0.54166667  0.54166667  1.0
  Nb  Nb1301  1  0.29166667  0.54166667  0.87500000  1.0
  Nb  Nb1302  1  0.29166667  0.87500000  0.20833333  1.0
  Nb  Nb1303  1  0.29166667  0.87500000  0.54166667  1.0
  Nb  Nb1304  1  0.29166667  0.87500000  0.87500000  1.0
  Nb  Nb1305  1  0.62500000  0.20833333  0.20833333  1.0
  Nb  Nb1306  1  0.62500000  0.20833333  0.54166667  1.0
  Nb  Nb1307  1  0.62500000  0.20833333  0.87500000  1.0
  Nb  Nb1308  1  0.62500000  0.54166667  0.20833333  1.0
  Nb  Nb1309  1  0.62500000  0.54166667  0.54166667  1.0
  Nb  Nb1310  1  0.62500000  0.54166667  0.87500000  1.0
  Nb  Nb1311  1  0.62500000  0.87500000  0.20833333  1.0
  Nb  Nb1312  1  0.62500000  0.87500000  0.54166667  1.0
  Nb  Nb1313  1  0.62500000  0.87500000  0.87500000  1.0
  Nb  Nb1314  1  0.95833333  0.20833333  0.20833333  1.0
  Nb  Nb1315  1  0.95833333  0.20833333  0.54166667  1.0
  Nb  Nb1316  1  0.95833333  0.20833333  0.87500000  1.0
  Nb  Nb1317  1  0.95833333  0.54166667  0.20833333  1.0
  Nb  Nb1318  1  0.95833333  0.54166667  0.54166667  1.0
  Nb  Nb1319  1  0.95833333  0.54166667  0.87500000  1.0
  Nb  Nb1320  1  0.95833333  0.87500000  0.20833333  1.0
  Nb  Nb1321  1  0.95833333  0.87500000  0.54166667  1.0
  Nb  Nb1322  1  0.95833333  0.87500000  0.87500000  1.0
  Nb  Nb1323  1  0.12500000  0.04166667  0.20833333  1.0
  Nb  Nb1324  1  0.12500000  0.04166667  0.54166667  1.0
  Nb  Nb1325  1  0.12500000  0.04166667  0.87500000  1.0
  Nb  Nb1326  1  0.12500000  0.37500000  0.20833333  1.0
  Nb  Nb1327  1  0.12500000  0.37500000  0.54166667  1.0
  Nb  Nb1328  1  0.12500000  0.37500000  0.87500000  1.0
  Nb  Nb1329  1  0.12500000  0.70833333  0.20833333  1.0
  Nb  Nb1330  1  0.12500000  0.70833333  0.54166667  1.0
  Nb  Nb1331  1  0.12500000  0.70833333  0.87500000  1.0
  Nb  Nb1332  1  0.45833333  0.04166667  0.20833333  1.0
  Nb  Nb1333  1  0.45833333  0.04166667  0.54166667  1.0
  Nb  Nb1334  1  0.45833333  0.04166667  0.87500000  1.0
  Nb  Nb1335  1  0.45833333  0.37500000  0.20833333  1.0
  Nb  Nb1336  1  0.45833333  0.37500000  0.54166667  1.0
  Nb  Nb1337  1  0.45833333  0.37500000  0.87500000  1.0
  Nb  Nb1338  1  0.45833333  0.70833333  0.20833333  1.0
  Nb  Nb1339  1  0.45833333  0.70833333  0.54166667  1.0
  Nb  Nb1340  1  0.45833333  0.70833333  0.87500000  1.0
  Nb  Nb1341  1  0.79166667  0.04166667  0.20833333  1.0
  Nb  Nb1342  1  0.79166667  0.04166667  0.54166667  1.0
  Nb  Nb1343  1  0.79166667  0.04166667  0.87500000  1.0
  Nb  Nb1344  1  0.79166667  0.37500000  0.20833333  1.0
  Nb  Nb1345  1  0.79166667  0.37500000  0.54166667  1.0
  Nb  Nb1346  1  0.79166667  0.37500000  0.87500000  1.0
  Nb  Nb1347  1  0.79166667  0.70833333  0.20833333  1.0
  Nb  Nb1348  1  0.79166667  0.70833333  0.54166667  1.0
  Nb  Nb1349  1  0.79166667  0.70833333  0.87500000  1.0
  Nb  Nb1350  1  0.12500000  0.20833333  0.04166667  1.0
  Nb  Nb1351  1  0.12500000  0.20833333  0.37500000  1.0
  Nb  Nb1352  1  0.12500000  0.20833333  0.70833333  1.0
  Nb  Nb1353  1  0.12500000  0.54166667  0.04166667  1.0
  Nb  Nb1354  1  0.12500000  0.54166667  0.37500000  1.0
  Nb  Nb1355  1  0.12500000  0.54166667  0.70833333  1.0
  Nb  Nb1356  1  0.12500000  0.87500000  0.04166667  1.0
  Nb  Nb1357  1  0.12500000  0.87500000  0.37500000  1.0
  Nb  Nb1358  1  0.12500000  0.87500000  0.70833333  1.0
  Nb  Nb1359  1  0.45833333  0.20833333  0.04166667  1.0
  Nb  Nb1360  1  0.45833333  0.20833333  0.37500000  1.0
  Nb  Nb1361  1  0.45833333  0.20833333  0.70833333  1.0
  Nb  Nb1362  1  0.45833333  0.54166667  0.04166667  1.0
  Nb  Nb1363  1  0.45833333  0.54166667  0.37500000  1.0
  Nb  Nb1364  1  0.45833333  0.54166667  0.70833333  1.0
  Nb  Nb1365  1  0.45833333  0.87500000  0.04166667  1.0
  Nb  Nb1366  1  0.45833333  0.87500000  0.37500000  1.0
  Nb  Nb1367  1  0.45833333  0.87500000  0.70833333  1.0
  Nb  Nb1368  1  0.79166667  0.20833333  0.04166667  1.0
  Nb  Nb1369  1  0.79166667  0.20833333  0.37500000  1.0
  Nb  Nb1370  1  0.79166667  0.20833333  0.70833333  1.0
  Nb  Nb1371  1  0.79166667  0.54166667  0.04166667  1.0
  Nb  Nb1372  1  0.79166667  0.54166667  0.37500000  1.0
  Nb  Nb1373  1  0.79166667  0.54166667  0.70833333  1.0
  Nb  Nb1374  1  0.79166667  0.87500000  0.04166667  1.0
  Nb  Nb1375  1  0.79166667  0.87500000  0.37500000  1.0
  Nb  Nb1376  1  0.79166667  0.87500000  0.70833333  1.0
  Nb  Nb1377  1  0.29166667  0.04166667  0.04166667  1.0
  Nb  Nb1378  1  0.29166667  0.04166667  0.37500000  1.0
  Nb  Nb1379  1  0.29166667  0.04166667  0.70833333  1.0
  Nb  Nb1380  1  0.29166667  0.37500000  0.04166667  1.0
  Nb  Nb1381  1  0.29166667  0.37500000  0.37500000  1.0
  Nb  Nb1382  1  0.29166667  0.37500000  0.70833333  1.0
  Nb  Nb1383  1  0.29166667  0.70833333  0.04166667  1.0
  Nb  Nb1384  1  0.29166667  0.70833333  0.37500000  1.0
  Nb  Nb1385  1  0.29166667  0.70833333  0.70833333  1.0
  Nb  Nb1386  1  0.62500000  0.04166667  0.04166667  1.0
  Nb  Nb1387  1  0.62500000  0.04166667  0.37500000  1.0
  Nb  Nb1388  1  0.62500000  0.04166667  0.70833333  1.0
  Nb  Nb1389  1  0.62500000  0.37500000  0.04166667  1.0
  Nb  Nb1390  1  0.62500000  0.37500000  0.37500000  1.0
  Nb  Nb1391  1  0.62500000  0.37500000  0.70833333  1.0
  Nb  Nb1392  1  0.62500000  0.70833333  0.04166667  1.0
  Nb  Nb1393  1  0.62500000  0.70833333  0.37500000  1.0
  Nb  Nb1394  1  0.62500000  0.70833333  0.70833333  1.0
  Nb  Nb1395  1  0.95833333  0.04166667  0.04166667  1.0
  Nb  Nb1396  1  0.95833333  0.04166667  0.37500000  1.0
  Nb  Nb1397  1  0.95833333  0.04166667  0.70833333  1.0
  Nb  Nb1398  1  0.95833333  0.37500000  0.04166667  1.0
  Nb  Nb1399  1  0.95833333  0.37500000  0.37500000  1.0
  Nb  Nb1400  1  0.95833333  0.37500000  0.70833333  1.0
  Nb  Nb1401  1  0.95833333  0.70833333  0.04166667  1.0
  Nb  Nb1402  1  0.95833333  0.70833333  0.37500000  1.0
  Nb  Nb1403  1  0.95833333  0.70833333  0.70833333  1.0
  Nb  Nb1404  1  0.20833333  0.29166667  0.20833333  1.0
  Nb  Nb1405  1  0.20833333  0.29166667  0.54166667  1.0
  Nb  Nb1406  1  0.20833333  0.29166667  0.87500000  1.0
  Nb  Nb1407  1  0.20833333  0.62500000  0.20833333  1.0
  Nb  Nb1408  1  0.20833333  0.62500000  0.54166667  1.0
  Nb  Nb1409  1  0.20833333  0.62500000  0.87500000  1.0
  Nb  Nb1410  1  0.20833333  0.95833333  0.20833333  1.0
  Nb  Nb1411  1  0.20833333  0.95833333  0.54166667  1.0
  Nb  Nb1412  1  0.20833333  0.95833333  0.87500000  1.0
  Nb  Nb1413  1  0.54166667  0.29166667  0.20833333  1.0
  Nb  Nb1414  1  0.54166667  0.29166667  0.54166667  1.0
  Nb  Nb1415  1  0.54166667  0.29166667  0.87500000  1.0
  Nb  Nb1416  1  0.54166667  0.62500000  0.20833333  1.0
  Nb  Nb1417  1  0.54166667  0.62500000  0.54166667  1.0
  Nb  Nb1418  1  0.54166667  0.62500000  0.87500000  1.0
  Nb  Nb1419  1  0.54166667  0.95833333  0.20833333  1.0
  Nb  Nb1420  1  0.54166667  0.95833333  0.54166667  1.0
  Nb  Nb1421  1  0.54166667  0.95833333  0.87500000  1.0
  Nb  Nb1422  1  0.87500000  0.29166667  0.20833333  1.0
  Nb  Nb1423  1  0.87500000  0.29166667  0.54166667  1.0
  Nb  Nb1424  1  0.87500000  0.29166667  0.87500000  1.0
  Nb  Nb1425  1  0.87500000  0.62500000  0.20833333  1.0
  Nb  Nb1426  1  0.87500000  0.62500000  0.54166667  1.0
  Nb  Nb1427  1  0.87500000  0.62500000  0.87500000  1.0
  Nb  Nb1428  1  0.87500000  0.95833333  0.20833333  1.0
  Nb  Nb1429  1  0.87500000  0.95833333  0.54166667  1.0
  Nb  Nb1430  1  0.87500000  0.95833333  0.87500000  1.0
  Nb  Nb1431  1  0.04166667  0.12500000  0.20833333  1.0
  Nb  Nb1432  1  0.04166667  0.12500000  0.54166667  1.0
  Nb  Nb1433  1  0.04166667  0.12500000  0.87500000  1.0
  Nb  Nb1434  1  0.04166667  0.45833333  0.20833333  1.0
  Nb  Nb1435  1  0.04166667  0.45833333  0.54166667  1.0
  Nb  Nb1436  1  0.04166667  0.45833333  0.87500000  1.0
  Nb  Nb1437  1  0.04166667  0.79166667  0.20833333  1.0
  Nb  Nb1438  1  0.04166667  0.79166667  0.54166667  1.0
  Nb  Nb1439  1  0.04166667  0.79166667  0.87500000  1.0
  Nb  Nb1440  1  0.37500000  0.12500000  0.20833333  1.0
  Nb  Nb1441  1  0.37500000  0.12500000  0.54166667  1.0
  Nb  Nb1442  1  0.37500000  0.12500000  0.87500000  1.0
  Nb  Nb1443  1  0.37500000  0.45833333  0.20833333  1.0
  Nb  Nb1444  1  0.37500000  0.45833333  0.54166667  1.0
  Nb  Nb1445  1  0.37500000  0.45833333  0.87500000  1.0
  Nb  Nb1446  1  0.37500000  0.79166667  0.20833333  1.0
  Nb  Nb1447  1  0.37500000  0.79166667  0.54166667  1.0
  Nb  Nb1448  1  0.37500000  0.79166667  0.87500000  1.0
  Nb  Nb1449  1  0.70833333  0.12500000  0.20833333  1.0
  Nb  Nb1450  1  0.70833333  0.12500000  0.54166667  1.0
  Nb  Nb1451  1  0.70833333  0.12500000  0.87500000  1.0
  Nb  Nb1452  1  0.70833333  0.45833333  0.20833333  1.0
  Nb  Nb1453  1  0.70833333  0.45833333  0.54166667  1.0
  Nb  Nb1454  1  0.70833333  0.45833333  0.87500000  1.0
  Nb  Nb1455  1  0.70833333  0.79166667  0.20833333  1.0
  Nb  Nb1456  1  0.70833333  0.79166667  0.54166667  1.0
  Nb  Nb1457  1  0.70833333  0.79166667  0.87500000  1.0
  Nb  Nb1458  1  0.04166667  0.29166667  0.04166667  1.0
  Nb  Nb1459  1  0.04166667  0.29166667  0.37500000  1.0
  Nb  Nb1460  1  0.04166667  0.29166667  0.70833333  1.0
  Nb  Nb1461  1  0.04166667  0.62500000  0.04166667  1.0
  Nb  Nb1462  1  0.04166667  0.62500000  0.37500000  1.0
  Nb  Nb1463  1  0.04166667  0.62500000  0.70833333  1.0
  Nb  Nb1464  1  0.04166667  0.95833333  0.04166667  1.0
  Nb  Nb1465  1  0.04166667  0.95833333  0.37500000  1.0
  Nb  Nb1466  1  0.04166667  0.95833333  0.70833333  1.0
  Nb  Nb1467  1  0.37500000  0.29166667  0.04166667  1.0
  Nb  Nb1468  1  0.37500000  0.29166667  0.37500000  1.0
  Nb  Nb1469  1  0.37500000  0.29166667  0.70833333  1.0
  Nb  Nb1470  1  0.37500000  0.62500000  0.04166667  1.0
  Nb  Nb1471  1  0.37500000  0.62500000  0.37500000  1.0
  Nb  Nb1472  1  0.37500000  0.62500000  0.70833333  1.0
  Nb  Nb1473  1  0.37500000  0.95833333  0.04166667  1.0
  Nb  Nb1474  1  0.37500000  0.95833333  0.37500000  1.0
  Nb  Nb1475  1  0.37500000  0.95833333  0.70833333  1.0
  Nb  Nb1476  1  0.70833333  0.29166667  0.04166667  1.0
  Nb  Nb1477  1  0.70833333  0.29166667  0.37500000  1.0
  Nb  Nb1478  1  0.70833333  0.29166667  0.70833333  1.0
  Nb  Nb1479  1  0.70833333  0.62500000  0.04166667  1.0
  Nb  Nb1480  1  0.70833333  0.62500000  0.37500000  1.0
  Nb  Nb1481  1  0.70833333  0.62500000  0.70833333  1.0
  Nb  Nb1482  1  0.70833333  0.95833333  0.04166667  1.0
  Nb  Nb1483  1  0.70833333  0.95833333  0.37500000  1.0
  Nb  Nb1484  1  0.70833333  0.95833333  0.70833333  1.0
  Nb  Nb1485  1  0.20833333  0.12500000  0.04166667  1.0
  Nb  Nb1486  1  0.20833333  0.12500000  0.37500000  1.0
  Nb  Nb1487  1  0.20833333  0.12500000  0.70833333  1.0
  Nb  Nb1488  1  0.20833333  0.45833333  0.04166667  1.0
  Nb  Nb1489  1  0.20833333  0.45833333  0.37500000  1.0
  Nb  Nb1490  1  0.20833333  0.45833333  0.70833333  1.0
  Nb  Nb1491  1  0.20833333  0.79166667  0.04166667  1.0
  Nb  Nb1492  1  0.20833333  0.79166667  0.37500000  1.0
  Nb  Nb1493  1  0.20833333  0.79166667  0.70833333  1.0
  Nb  Nb1494  1  0.54166667  0.12500000  0.04166667  1.0
  Nb  Nb1495  1  0.54166667  0.12500000  0.37500000  1.0
  Nb  Nb1496  1  0.54166667  0.12500000  0.70833333  1.0
  Nb  Nb1497  1  0.54166667  0.45833333  0.04166667  1.0
  Nb  Nb1498  1  0.54166667  0.45833333  0.37500000  1.0
  Nb  Nb1499  1  0.54166667  0.45833333  0.70833333  1.0
  Nb  Nb1500  1  0.54166667  0.79166667  0.04166667  1.0
  Nb  Nb1501  1  0.54166667  0.79166667  0.37500000  1.0
  Nb  Nb1502  1  0.54166667  0.79166667  0.70833333  1.0
  Nb  Nb1503  1  0.87500000  0.12500000  0.04166667  1.0
  Nb  Nb1504  1  0.87500000  0.12500000  0.37500000  1.0
  Nb  Nb1505  1  0.87500000  0.12500000  0.70833333  1.0
  Nb  Nb1506  1  0.87500000  0.45833333  0.04166667  1.0
  Nb  Nb1507  1  0.87500000  0.45833333  0.37500000  1.0
  Nb  Nb1508  1  0.87500000  0.45833333  0.70833333  1.0
  Nb  Nb1509  1  0.87500000  0.79166667  0.04166667  1.0
  Nb  Nb1510  1  0.87500000  0.79166667  0.37500000  1.0
  Nb  Nb1511  1  0.87500000  0.79166667  0.70833333  1.0
  Nb  Nb1512  1  0.20833333  0.20833333  0.12500000  1.0
  Nb  Nb1513  1  0.20833333  0.20833333  0.45833333  1.0
  Nb  Nb1514  1  0.20833333  0.20833333  0.79166667  1.0
  Nb  Nb1515  1  0.20833333  0.54166667  0.12500000  1.0
  Nb  Nb1516  1  0.20833333  0.54166667  0.45833333  1.0
  Nb  Nb1517  1  0.20833333  0.54166667  0.79166667  1.0
  Nb  Nb1518  1  0.20833333  0.87500000  0.12500000  1.0
  Nb  Nb1519  1  0.20833333  0.87500000  0.45833333  1.0
  Nb  Nb1520  1  0.20833333  0.87500000  0.79166667  1.0
  Nb  Nb1521  1  0.54166667  0.20833333  0.12500000  1.0
  Nb  Nb1522  1  0.54166667  0.20833333  0.45833333  1.0
  Nb  Nb1523  1  0.54166667  0.20833333  0.79166667  1.0
  Nb  Nb1524  1  0.54166667  0.54166667  0.12500000  1.0
  Nb  Nb1525  1  0.54166667  0.54166667  0.45833333  1.0
  Nb  Nb1526  1  0.54166667  0.54166667  0.79166667  1.0
  Nb  Nb1527  1  0.54166667  0.87500000  0.12500000  1.0
  Nb  Nb1528  1  0.54166667  0.87500000  0.45833333  1.0
  Nb  Nb1529  1  0.54166667  0.87500000  0.79166667  1.0
  Nb  Nb1530  1  0.87500000  0.20833333  0.12500000  1.0
  Nb  Nb1531  1  0.87500000  0.20833333  0.45833333  1.0
  Nb  Nb1532  1  0.87500000  0.20833333  0.79166667  1.0
  Nb  Nb1533  1  0.87500000  0.54166667  0.12500000  1.0
  Nb  Nb1534  1  0.87500000  0.54166667  0.45833333  1.0
  Nb  Nb1535  1  0.87500000  0.54166667  0.79166667  1.0
  Nb  Nb1536  1  0.87500000  0.87500000  0.12500000  1.0
  Nb  Nb1537  1  0.87500000  0.87500000  0.45833333  1.0
  Nb  Nb1538  1  0.87500000  0.87500000  0.79166667  1.0
  Nb  Nb1539  1  0.04166667  0.04166667  0.12500000  1.0
  Nb  Nb1540  1  0.04166667  0.04166667  0.45833333  1.0
  Nb  Nb1541  1  0.04166667  0.04166667  0.79166667  1.0
  Nb  Nb1542  1  0.04166667  0.37500000  0.12500000  1.0
  Nb  Nb1543  1  0.04166667  0.37500000  0.45833333  1.0
  Nb  Nb1544  1  0.04166667  0.37500000  0.79166667  1.0
  Nb  Nb1545  1  0.04166667  0.70833333  0.12500000  1.0
  Nb  Nb1546  1  0.04166667  0.70833333  0.45833333  1.0
  Nb  Nb1547  1  0.04166667  0.70833333  0.79166667  1.0
  Nb  Nb1548  1  0.37500000  0.04166667  0.12500000  1.0
  Nb  Nb1549  1  0.37500000  0.04166667  0.45833333  1.0
  Nb  Nb1550  1  0.37500000  0.04166667  0.79166667  1.0
  Nb  Nb1551  1  0.37500000  0.37500000  0.12500000  1.0
  Nb  Nb1552  1  0.37500000  0.37500000  0.45833333  1.0
  Nb  Nb1553  1  0.37500000  0.37500000  0.79166667  1.0
  Nb  Nb1554  1  0.37500000  0.70833333  0.12500000  1.0
  Nb  Nb1555  1  0.37500000  0.70833333  0.45833333  1.0
  Nb  Nb1556  1  0.37500000  0.70833333  0.79166667  1.0
  Nb  Nb1557  1  0.70833333  0.04166667  0.12500000  1.0
  Nb  Nb1558  1  0.70833333  0.04166667  0.45833333  1.0
  Nb  Nb1559  1  0.70833333  0.04166667  0.79166667  1.0
  Nb  Nb1560  1  0.70833333  0.37500000  0.12500000  1.0
  Nb  Nb1561  1  0.70833333  0.37500000  0.45833333  1.0
  Nb  Nb1562  1  0.70833333  0.37500000  0.79166667  1.0
  Nb  Nb1563  1  0.70833333  0.70833333  0.12500000  1.0
  Nb  Nb1564  1  0.70833333  0.70833333  0.45833333  1.0
  Nb  Nb1565  1  0.70833333  0.70833333  0.79166667  1.0
  Nb  Nb1566  1  0.04166667  0.20833333  0.29166667  1.0
  Nb  Nb1567  1  0.04166667  0.20833333  0.62500000  1.0
  Nb  Nb1568  1  0.04166667  0.20833333  0.95833333  1.0
  Nb  Nb1569  1  0.04166667  0.54166667  0.29166667  1.0
  Nb  Nb1570  1  0.04166667  0.54166667  0.62500000  1.0
  Nb  Nb1571  1  0.04166667  0.54166667  0.95833333  1.0
  Nb  Nb1572  1  0.04166667  0.87500000  0.29166667  1.0
  Nb  Nb1573  1  0.04166667  0.87500000  0.62500000  1.0
  Nb  Nb1574  1  0.04166667  0.87500000  0.95833333  1.0
  Nb  Nb1575  1  0.37500000  0.20833333  0.29166667  1.0
  Nb  Nb1576  1  0.37500000  0.20833333  0.62500000  1.0
  Nb  Nb1577  1  0.37500000  0.20833333  0.95833333  1.0
  Nb  Nb1578  1  0.37500000  0.54166667  0.29166667  1.0
  Nb  Nb1579  1  0.37500000  0.54166667  0.62500000  1.0
  Nb  Nb1580  1  0.37500000  0.54166667  0.95833333  1.0
  Nb  Nb1581  1  0.37500000  0.87500000  0.29166667  1.0
  Nb  Nb1582  1  0.37500000  0.87500000  0.62500000  1.0
  Nb  Nb1583  1  0.37500000  0.87500000  0.95833333  1.0
  Nb  Nb1584  1  0.70833333  0.20833333  0.29166667  1.0
  Nb  Nb1585  1  0.70833333  0.20833333  0.62500000  1.0
  Nb  Nb1586  1  0.70833333  0.20833333  0.95833333  1.0
  Nb  Nb1587  1  0.70833333  0.54166667  0.29166667  1.0
  Nb  Nb1588  1  0.70833333  0.54166667  0.62500000  1.0
  Nb  Nb1589  1  0.70833333  0.54166667  0.95833333  1.0
  Nb  Nb1590  1  0.70833333  0.87500000  0.29166667  1.0
  Nb  Nb1591  1  0.70833333  0.87500000  0.62500000  1.0
  Nb  Nb1592  1  0.70833333  0.87500000  0.95833333  1.0
  Nb  Nb1593  1  0.20833333  0.04166667  0.29166667  1.0
  Nb  Nb1594  1  0.20833333  0.04166667  0.62500000  1.0
  Nb  Nb1595  1  0.20833333  0.04166667  0.95833333  1.0
  Nb  Nb1596  1  0.20833333  0.37500000  0.29166667  1.0
  Nb  Nb1597  1  0.20833333  0.37500000  0.62500000  1.0
  Nb  Nb1598  1  0.20833333  0.37500000  0.95833333  1.0
  Nb  Nb1599  1  0.20833333  0.70833333  0.29166667  1.0
  Nb  Nb1600  1  0.20833333  0.70833333  0.62500000  1.0
  Nb  Nb1601  1  0.20833333  0.70833333  0.95833333  1.0
  Nb  Nb1602  1  0.54166667  0.04166667  0.29166667  1.0
  Nb  Nb1603  1  0.54166667  0.04166667  0.62500000  1.0
  Nb  Nb1604  1  0.54166667  0.04166667  0.95833333  1.0
  Nb  Nb1605  1  0.54166667  0.37500000  0.29166667  1.0
  Nb  Nb1606  1  0.54166667  0.37500000  0.62500000  1.0
  Nb  Nb1607  1  0.54166667  0.37500000  0.95833333  1.0
  Nb  Nb1608  1  0.54166667  0.70833333  0.29166667  1.0
  Nb  Nb1609  1  0.54166667  0.70833333  0.62500000  1.0
  Nb  Nb1610  1  0.54166667  0.70833333  0.95833333  1.0
  Nb  Nb1611  1  0.87500000  0.04166667  0.29166667  1.0
  Nb  Nb1612  1  0.87500000  0.04166667  0.62500000  1.0
  Nb  Nb1613  1  0.87500000  0.04166667  0.95833333  1.0
  Nb  Nb1614  1  0.87500000  0.37500000  0.29166667  1.0
  Nb  Nb1615  1  0.87500000  0.37500000  0.62500000  1.0
  Nb  Nb1616  1  0.87500000  0.37500000  0.95833333  1.0
  Nb  Nb1617  1  0.87500000  0.70833333  0.29166667  1.0
  Nb  Nb1618  1  0.87500000  0.70833333  0.62500000  1.0
  Nb  Nb1619  1  0.87500000  0.70833333  0.95833333  1.0
  Nb  Nb1620  1  0.20833333  0.20833333  0.29166667  1.0
  Nb  Nb1621  1  0.20833333  0.20833333  0.62500000  1.0
  Nb  Nb1622  1  0.20833333  0.20833333  0.95833333  1.0
  Nb  Nb1623  1  0.20833333  0.54166667  0.29166667  1.0
  Nb  Nb1624  1  0.20833333  0.54166667  0.62500000  1.0
  Nb  Nb1625  1  0.20833333  0.54166667  0.95833333  1.0
  Nb  Nb1626  1  0.20833333  0.87500000  0.29166667  1.0
  Nb  Nb1627  1  0.20833333  0.87500000  0.62500000  1.0
  Nb  Nb1628  1  0.20833333  0.87500000  0.95833333  1.0
  Nb  Nb1629  1  0.54166667  0.20833333  0.29166667  1.0
  Nb  Nb1630  1  0.54166667  0.20833333  0.62500000  1.0
  Nb  Nb1631  1  0.54166667  0.20833333  0.95833333  1.0
  Nb  Nb1632  1  0.54166667  0.54166667  0.29166667  1.0
  Nb  Nb1633  1  0.54166667  0.54166667  0.62500000  1.0
  Nb  Nb1634  1  0.54166667  0.54166667  0.95833333  1.0
  Nb  Nb1635  1  0.54166667  0.87500000  0.29166667  1.0
  Nb  Nb1636  1  0.54166667  0.87500000  0.62500000  1.0
  Nb  Nb1637  1  0.54166667  0.87500000  0.95833333  1.0
  Nb  Nb1638  1  0.87500000  0.20833333  0.29166667  1.0
  Nb  Nb1639  1  0.87500000  0.20833333  0.62500000  1.0
  Nb  Nb1640  1  0.87500000  0.20833333  0.95833333  1.0
  Nb  Nb1641  1  0.87500000  0.54166667  0.29166667  1.0
  Nb  Nb1642  1  0.87500000  0.54166667  0.62500000  1.0
  Nb  Nb1643  1  0.87500000  0.54166667  0.95833333  1.0
  Nb  Nb1644  1  0.87500000  0.87500000  0.29166667  1.0
  Nb  Nb1645  1  0.87500000  0.87500000  0.62500000  1.0
  Nb  Nb1646  1  0.87500000  0.87500000  0.95833333  1.0
  Nb  Nb1647  1  0.04166667  0.04166667  0.29166667  1.0
  Nb  Nb1648  1  0.04166667  0.04166667  0.62500000  1.0
  Nb  Nb1649  1  0.04166667  0.04166667  0.95833333  1.0
  Nb  Nb1650  1  0.04166667  0.37500000  0.29166667  1.0
  Nb  Nb1651  1  0.04166667  0.37500000  0.62500000  1.0
  Nb  Nb1652  1  0.04166667  0.37500000  0.95833333  1.0
  Nb  Nb1653  1  0.04166667  0.70833333  0.29166667  1.0
  Nb  Nb1654  1  0.04166667  0.70833333  0.62500000  1.0
  Nb  Nb1655  1  0.04166667  0.70833333  0.95833333  1.0
  Nb  Nb1656  1  0.37500000  0.04166667  0.29166667  1.0
  Nb  Nb1657  1  0.37500000  0.04166667  0.62500000  1.0
  Nb  Nb1658  1  0.37500000  0.04166667  0.95833333  1.0
  Nb  Nb1659  1  0.37500000  0.37500000  0.29166667  1.0
  Nb  Nb1660  1  0.37500000  0.37500000  0.62500000  1.0
  Nb  Nb1661  1  0.37500000  0.37500000  0.95833333  1.0
  Nb  Nb1662  1  0.37500000  0.70833333  0.29166667  1.0
  Nb  Nb1663  1  0.37500000  0.70833333  0.62500000  1.0
  Nb  Nb1664  1  0.37500000  0.70833333  0.95833333  1.0
  Nb  Nb1665  1  0.70833333  0.04166667  0.29166667  1.0
  Nb  Nb1666  1  0.70833333  0.04166667  0.62500000  1.0
  Nb  Nb1667  1  0.70833333  0.04166667  0.95833333  1.0
  Nb  Nb1668  1  0.70833333  0.37500000  0.29166667  1.0
  Nb  Nb1669  1  0.70833333  0.37500000  0.62500000  1.0
  Nb  Nb1670  1  0.70833333  0.37500000  0.95833333  1.0
  Nb  Nb1671  1  0.70833333  0.70833333  0.29166667  1.0
  Nb  Nb1672  1  0.70833333  0.70833333  0.62500000  1.0
  Nb  Nb1673  1  0.70833333  0.70833333  0.95833333  1.0
  Nb  Nb1674  1  0.04166667  0.20833333  0.12500000  1.0
  Nb  Nb1675  1  0.04166667  0.20833333  0.45833333  1.0
  Nb  Nb1676  1  0.04166667  0.20833333  0.79166667  1.0
  Nb  Nb1677  1  0.04166667  0.54166667  0.12500000  1.0
  Nb  Nb1678  1  0.04166667  0.54166667  0.45833333  1.0
  Nb  Nb1679  1  0.04166667  0.54166667  0.79166667  1.0
  Nb  Nb1680  1  0.04166667  0.87500000  0.12500000  1.0
  Nb  Nb1681  1  0.04166667  0.87500000  0.45833333  1.0
  Nb  Nb1682  1  0.04166667  0.87500000  0.79166667  1.0
  Nb  Nb1683  1  0.37500000  0.20833333  0.12500000  1.0
  Nb  Nb1684  1  0.37500000  0.20833333  0.45833333  1.0
  Nb  Nb1685  1  0.37500000  0.20833333  0.79166667  1.0
  Nb  Nb1686  1  0.37500000  0.54166667  0.12500000  1.0
  Nb  Nb1687  1  0.37500000  0.54166667  0.45833333  1.0
  Nb  Nb1688  1  0.37500000  0.54166667  0.79166667  1.0
  Nb  Nb1689  1  0.37500000  0.87500000  0.12500000  1.0
  Nb  Nb1690  1  0.37500000  0.87500000  0.45833333  1.0
  Nb  Nb1691  1  0.37500000  0.87500000  0.79166667  1.0
  Nb  Nb1692  1  0.70833333  0.20833333  0.12500000  1.0
  Nb  Nb1693  1  0.70833333  0.20833333  0.45833333  1.0
  Nb  Nb1694  1  0.70833333  0.20833333  0.79166667  1.0
  Nb  Nb1695  1  0.70833333  0.54166667  0.12500000  1.0
  Nb  Nb1696  1  0.70833333  0.54166667  0.45833333  1.0
  Nb  Nb1697  1  0.70833333  0.54166667  0.79166667  1.0
  Nb  Nb1698  1  0.70833333  0.87500000  0.12500000  1.0
  Nb  Nb1699  1  0.70833333  0.87500000  0.45833333  1.0
  Nb  Nb1700  1  0.70833333  0.87500000  0.79166667  1.0
  Nb  Nb1701  1  0.20833333  0.04166667  0.12500000  1.0
  Nb  Nb1702  1  0.20833333  0.04166667  0.45833333  1.0
  Nb  Nb1703  1  0.20833333  0.04166667  0.79166667  1.0
  Nb  Nb1704  1  0.20833333  0.37500000  0.12500000  1.0
  Nb  Nb1705  1  0.20833333  0.37500000  0.45833333  1.0
  Nb  Nb1706  1  0.20833333  0.37500000  0.79166667  1.0
  Nb  Nb1707  1  0.20833333  0.70833333  0.12500000  1.0
  Nb  Nb1708  1  0.20833333  0.70833333  0.45833333  1.0
  Nb  Nb1709  1  0.20833333  0.70833333  0.79166667  1.0
  Nb  Nb1710  1  0.54166667  0.04166667  0.12500000  1.0
  Nb  Nb1711  1  0.54166667  0.04166667  0.45833333  1.0
  Nb  Nb1712  1  0.54166667  0.04166667  0.79166667  1.0
  Nb  Nb1713  1  0.54166667  0.37500000  0.12500000  1.0
  Nb  Nb1714  1  0.54166667  0.37500000  0.45833333  1.0
  Nb  Nb1715  1  0.54166667  0.37500000  0.79166667  1.0
  Nb  Nb1716  1  0.54166667  0.70833333  0.12500000  1.0
  Nb  Nb1717  1  0.54166667  0.70833333  0.45833333  1.0
  Nb  Nb1718  1  0.54166667  0.70833333  0.79166667  1.0
  Nb  Nb1719  1  0.87500000  0.04166667  0.12500000  1.0
  Nb  Nb1720  1  0.87500000  0.04166667  0.45833333  1.0
  Nb  Nb1721  1  0.87500000  0.04166667  0.79166667  1.0
  Nb  Nb1722  1  0.87500000  0.37500000  0.12500000  1.0
  Nb  Nb1723  1  0.87500000  0.37500000  0.45833333  1.0
  Nb  Nb1724  1  0.87500000  0.37500000  0.79166667  1.0
  Nb  Nb1725  1  0.87500000  0.70833333  0.12500000  1.0
  Nb  Nb1726  1  0.87500000  0.70833333  0.45833333  1.0
  Nb  Nb1727  1  0.87500000  0.70833333  0.79166667  1.0
  Nb  Nb1728  1  0.20833333  0.12500000  0.20833333  1.0
  Nb  Nb1729  1  0.20833333  0.12500000  0.54166667  1.0
  Nb  Nb1730  1  0.20833333  0.12500000  0.87500000  1.0
  Nb  Nb1731  1  0.20833333  0.45833333  0.20833333  1.0
  Nb  Nb1732  1  0.20833333  0.45833333  0.54166667  1.0
  Nb  Nb1733  1  0.20833333  0.45833333  0.87500000  1.0
  Nb  Nb1734  1  0.20833333  0.79166667  0.20833333  1.0
  Nb  Nb1735  1  0.20833333  0.79166667  0.54166667  1.0
  Nb  Nb1736  1  0.20833333  0.79166667  0.87500000  1.0
  Nb  Nb1737  1  0.54166667  0.12500000  0.20833333  1.0
  Nb  Nb1738  1  0.54166667  0.12500000  0.54166667  1.0
  Nb  Nb1739  1  0.54166667  0.12500000  0.87500000  1.0
  Nb  Nb1740  1  0.54166667  0.45833333  0.20833333  1.0
  Nb  Nb1741  1  0.54166667  0.45833333  0.54166667  1.0
  Nb  Nb1742  1  0.54166667  0.45833333  0.87500000  1.0
  Nb  Nb1743  1  0.54166667  0.79166667  0.20833333  1.0
  Nb  Nb1744  1  0.54166667  0.79166667  0.54166667  1.0
  Nb  Nb1745  1  0.54166667  0.79166667  0.87500000  1.0
  Nb  Nb1746  1  0.87500000  0.12500000  0.20833333  1.0
  Nb  Nb1747  1  0.87500000  0.12500000  0.54166667  1.0
  Nb  Nb1748  1  0.87500000  0.12500000  0.87500000  1.0
  Nb  Nb1749  1  0.87500000  0.45833333  0.20833333  1.0
  Nb  Nb1750  1  0.87500000  0.45833333  0.54166667  1.0
  Nb  Nb1751  1  0.87500000  0.45833333  0.87500000  1.0
  Nb  Nb1752  1  0.87500000  0.79166667  0.20833333  1.0
  Nb  Nb1753  1  0.87500000  0.79166667  0.54166667  1.0
  Nb  Nb1754  1  0.87500000  0.79166667  0.87500000  1.0
  Nb  Nb1755  1  0.04166667  0.29166667  0.20833333  1.0
  Nb  Nb1756  1  0.04166667  0.29166667  0.54166667  1.0
  Nb  Nb1757  1  0.04166667  0.29166667  0.87500000  1.0
  Nb  Nb1758  1  0.04166667  0.62500000  0.20833333  1.0
  Nb  Nb1759  1  0.04166667  0.62500000  0.54166667  1.0
  Nb  Nb1760  1  0.04166667  0.62500000  0.87500000  1.0
  Nb  Nb1761  1  0.04166667  0.95833333  0.20833333  1.0
  Nb  Nb1762  1  0.04166667  0.95833333  0.54166667  1.0
  Nb  Nb1763  1  0.04166667  0.95833333  0.87500000  1.0
  Nb  Nb1764  1  0.37500000  0.29166667  0.20833333  1.0
  Nb  Nb1765  1  0.37500000  0.29166667  0.54166667  1.0
  Nb  Nb1766  1  0.37500000  0.29166667  0.87500000  1.0
  Nb  Nb1767  1  0.37500000  0.62500000  0.20833333  1.0
  Nb  Nb1768  1  0.37500000  0.62500000  0.54166667  1.0
  Nb  Nb1769  1  0.37500000  0.62500000  0.87500000  1.0
  Nb  Nb1770  1  0.37500000  0.95833333  0.20833333  1.0
  Nb  Nb1771  1  0.37500000  0.95833333  0.54166667  1.0
  Nb  Nb1772  1  0.37500000  0.95833333  0.87500000  1.0
  Nb  Nb1773  1  0.70833333  0.29166667  0.20833333  1.0
  Nb  Nb1774  1  0.70833333  0.29166667  0.54166667  1.0
  Nb  Nb1775  1  0.70833333  0.29166667  0.87500000  1.0
  Nb  Nb1776  1  0.70833333  0.62500000  0.20833333  1.0
  Nb  Nb1777  1  0.70833333  0.62500000  0.54166667  1.0
  Nb  Nb1778  1  0.70833333  0.62500000  0.87500000  1.0
  Nb  Nb1779  1  0.70833333  0.95833333  0.20833333  1.0
  Nb  Nb1780  1  0.70833333  0.95833333  0.54166667  1.0
  Nb  Nb1781  1  0.70833333  0.95833333  0.87500000  1.0
  Nb  Nb1782  1  0.04166667  0.12500000  0.04166667  1.0
  Nb  Nb1783  1  0.04166667  0.12500000  0.37500000  1.0
  Nb  Nb1784  1  0.04166667  0.12500000  0.70833333  1.0
  Nb  Nb1785  1  0.04166667  0.45833333  0.04166667  1.0
  Nb  Nb1786  1  0.04166667  0.45833333  0.37500000  1.0
  Nb  Nb1787  1  0.04166667  0.45833333  0.70833333  1.0
  Nb  Nb1788  1  0.04166667  0.79166667  0.04166667  1.0
  Nb  Nb1789  1  0.04166667  0.79166667  0.37500000  1.0
  Nb  Nb1790  1  0.04166667  0.79166667  0.70833333  1.0
  Nb  Nb1791  1  0.37500000  0.12500000  0.04166667  1.0
  Nb  Nb1792  1  0.37500000  0.12500000  0.37500000  1.0
  Nb  Nb1793  1  0.37500000  0.12500000  0.70833333  1.0
  Nb  Nb1794  1  0.37500000  0.45833333  0.04166667  1.0
  Nb  Nb1795  1  0.37500000  0.45833333  0.37500000  1.0
  Nb  Nb1796  1  0.37500000  0.45833333  0.70833333  1.0
  Nb  Nb1797  1  0.37500000  0.79166667  0.04166667  1.0
  Nb  Nb1798  1  0.37500000  0.79166667  0.37500000  1.0
  Nb  Nb1799  1  0.37500000  0.79166667  0.70833333  1.0
  Nb  Nb1800  1  0.70833333  0.12500000  0.04166667  1.0
  Nb  Nb1801  1  0.70833333  0.12500000  0.37500000  1.0
  Nb  Nb1802  1  0.70833333  0.12500000  0.70833333  1.0
  Nb  Nb1803  1  0.70833333  0.45833333  0.04166667  1.0
  Nb  Nb1804  1  0.70833333  0.45833333  0.37500000  1.0
  Nb  Nb1805  1  0.70833333  0.45833333  0.70833333  1.0
  Nb  Nb1806  1  0.70833333  0.79166667  0.04166667  1.0
  Nb  Nb1807  1  0.70833333  0.79166667  0.37500000  1.0
  Nb  Nb1808  1  0.70833333  0.79166667  0.70833333  1.0
  Nb  Nb1809  1  0.20833333  0.29166667  0.04166667  1.0
  Nb  Nb1810  1  0.20833333  0.29166667  0.37500000  1.0
  Nb  Nb1811  1  0.20833333  0.29166667  0.70833333  1.0
  Nb  Nb1812  1  0.20833333  0.62500000  0.04166667  1.0
  Nb  Nb1813  1  0.20833333  0.62500000  0.37500000  1.0
  Nb  Nb1814  1  0.20833333  0.62500000  0.70833333  1.0
  Nb  Nb1815  1  0.20833333  0.95833333  0.04166667  1.0
  Nb  Nb1816  1  0.20833333  0.95833333  0.37500000  1.0
  Nb  Nb1817  1  0.20833333  0.95833333  0.70833333  1.0
  Nb  Nb1818  1  0.54166667  0.29166667  0.04166667  1.0
  Nb  Nb1819  1  0.54166667  0.29166667  0.37500000  1.0
  Nb  Nb1820  1  0.54166667  0.29166667  0.70833333  1.0
  Nb  Nb1821  1  0.54166667  0.62500000  0.04166667  1.0
  Nb  Nb1822  1  0.54166667  0.62500000  0.37500000  1.0
  Nb  Nb1823  1  0.54166667  0.62500000  0.70833333  1.0
  Nb  Nb1824  1  0.54166667  0.95833333  0.04166667  1.0
  Nb  Nb1825  1  0.54166667  0.95833333  0.37500000  1.0
  Nb  Nb1826  1  0.54166667  0.95833333  0.70833333  1.0
  Nb  Nb1827  1  0.87500000  0.29166667  0.04166667  1.0
  Nb  Nb1828  1  0.87500000  0.29166667  0.37500000  1.0
  Nb  Nb1829  1  0.87500000  0.29166667  0.70833333  1.0
  Nb  Nb1830  1  0.87500000  0.62500000  0.04166667  1.0
  Nb  Nb1831  1  0.87500000  0.62500000  0.37500000  1.0
  Nb  Nb1832  1  0.87500000  0.62500000  0.70833333  1.0
  Nb  Nb1833  1  0.87500000  0.95833333  0.04166667  1.0
  Nb  Nb1834  1  0.87500000  0.95833333  0.37500000  1.0
  Nb  Nb1835  1  0.87500000  0.95833333  0.70833333  1.0
  Nb  Nb1836  1  0.12500000  0.20833333  0.20833333  1.0
  Nb  Nb1837  1  0.12500000  0.20833333  0.54166667  1.0
  Nb  Nb1838  1  0.12500000  0.20833333  0.87500000  1.0
  Nb  Nb1839  1  0.12500000  0.54166667  0.20833333  1.0
  Nb  Nb1840  1  0.12500000  0.54166667  0.54166667  1.0
  Nb  Nb1841  1  0.12500000  0.54166667  0.87500000  1.0
  Nb  Nb1842  1  0.12500000  0.87500000  0.20833333  1.0
  Nb  Nb1843  1  0.12500000  0.87500000  0.54166667  1.0
  Nb  Nb1844  1  0.12500000  0.87500000  0.87500000  1.0
  Nb  Nb1845  1  0.45833333  0.20833333  0.20833333  1.0
  Nb  Nb1846  1  0.45833333  0.20833333  0.54166667  1.0
  Nb  Nb1847  1  0.45833333  0.20833333  0.87500000  1.0
  Nb  Nb1848  1  0.45833333  0.54166667  0.20833333  1.0
  Nb  Nb1849  1  0.45833333  0.54166667  0.54166667  1.0
  Nb  Nb1850  1  0.45833333  0.54166667  0.87500000  1.0
  Nb  Nb1851  1  0.45833333  0.87500000  0.20833333  1.0
  Nb  Nb1852  1  0.45833333  0.87500000  0.54166667  1.0
  Nb  Nb1853  1  0.45833333  0.87500000  0.87500000  1.0
  Nb  Nb1854  1  0.79166667  0.20833333  0.20833333  1.0
  Nb  Nb1855  1  0.79166667  0.20833333  0.54166667  1.0
  Nb  Nb1856  1  0.79166667  0.20833333  0.87500000  1.0
  Nb  Nb1857  1  0.79166667  0.54166667  0.20833333  1.0
  Nb  Nb1858  1  0.79166667  0.54166667  0.54166667  1.0
  Nb  Nb1859  1  0.79166667  0.54166667  0.87500000  1.0
  Nb  Nb1860  1  0.79166667  0.87500000  0.20833333  1.0
  Nb  Nb1861  1  0.79166667  0.87500000  0.54166667  1.0
  Nb  Nb1862  1  0.79166667  0.87500000  0.87500000  1.0
  Nb  Nb1863  1  0.29166667  0.04166667  0.20833333  1.0
  Nb  Nb1864  1  0.29166667  0.04166667  0.54166667  1.0
  Nb  Nb1865  1  0.29166667  0.04166667  0.87500000  1.0
  Nb  Nb1866  1  0.29166667  0.37500000  0.20833333  1.0
  Nb  Nb1867  1  0.29166667  0.37500000  0.54166667  1.0
  Nb  Nb1868  1  0.29166667  0.37500000  0.87500000  1.0
  Nb  Nb1869  1  0.29166667  0.70833333  0.20833333  1.0
  Nb  Nb1870  1  0.29166667  0.70833333  0.54166667  1.0
  Nb  Nb1871  1  0.29166667  0.70833333  0.87500000  1.0
  Nb  Nb1872  1  0.62500000  0.04166667  0.20833333  1.0
  Nb  Nb1873  1  0.62500000  0.04166667  0.54166667  1.0
  Nb  Nb1874  1  0.62500000  0.04166667  0.87500000  1.0
  Nb  Nb1875  1  0.62500000  0.37500000  0.20833333  1.0
  Nb  Nb1876  1  0.62500000  0.37500000  0.54166667  1.0
  Nb  Nb1877  1  0.62500000  0.37500000  0.87500000  1.0
  Nb  Nb1878  1  0.62500000  0.70833333  0.20833333  1.0
  Nb  Nb1879  1  0.62500000  0.70833333  0.54166667  1.0
  Nb  Nb1880  1  0.62500000  0.70833333  0.87500000  1.0
  Nb  Nb1881  1  0.95833333  0.04166667  0.20833333  1.0
  Nb  Nb1882  1  0.95833333  0.04166667  0.54166667  1.0
  Nb  Nb1883  1  0.95833333  0.04166667  0.87500000  1.0
  Nb  Nb1884  1  0.95833333  0.37500000  0.20833333  1.0
  Nb  Nb1885  1  0.95833333  0.37500000  0.54166667  1.0
  Nb  Nb1886  1  0.95833333  0.37500000  0.87500000  1.0
  Nb  Nb1887  1  0.95833333  0.70833333  0.20833333  1.0
  Nb  Nb1888  1  0.95833333  0.70833333  0.54166667  1.0
  Nb  Nb1889  1  0.95833333  0.70833333  0.87500000  1.0
  Nb  Nb1890  1  0.29166667  0.20833333  0.04166667  1.0
  Nb  Nb1891  1  0.29166667  0.20833333  0.37500000  1.0
  Nb  Nb1892  1  0.29166667  0.20833333  0.70833333  1.0
  Nb  Nb1893  1  0.29166667  0.54166667  0.04166667  1.0
  Nb  Nb1894  1  0.29166667  0.54166667  0.37500000  1.0
  Nb  Nb1895  1  0.29166667  0.54166667  0.70833333  1.0
  Nb  Nb1896  1  0.29166667  0.87500000  0.04166667  1.0
  Nb  Nb1897  1  0.29166667  0.87500000  0.37500000  1.0
  Nb  Nb1898  1  0.29166667  0.87500000  0.70833333  1.0
  Nb  Nb1899  1  0.62500000  0.20833333  0.04166667  1.0
  Nb  Nb1900  1  0.62500000  0.20833333  0.37500000  1.0
  Nb  Nb1901  1  0.62500000  0.20833333  0.70833333  1.0
  Nb  Nb1902  1  0.62500000  0.54166667  0.04166667  1.0
  Nb  Nb1903  1  0.62500000  0.54166667  0.37500000  1.0
  Nb  Nb1904  1  0.62500000  0.54166667  0.70833333  1.0
  Nb  Nb1905  1  0.62500000  0.87500000  0.04166667  1.0
  Nb  Nb1906  1  0.62500000  0.87500000  0.37500000  1.0
  Nb  Nb1907  1  0.62500000  0.87500000  0.70833333  1.0
  Nb  Nb1908  1  0.95833333  0.20833333  0.04166667  1.0
  Nb  Nb1909  1  0.95833333  0.20833333  0.37500000  1.0
  Nb  Nb1910  1  0.95833333  0.20833333  0.70833333  1.0
  Nb  Nb1911  1  0.95833333  0.54166667  0.04166667  1.0
  Nb  Nb1912  1  0.95833333  0.54166667  0.37500000  1.0
  Nb  Nb1913  1  0.95833333  0.54166667  0.70833333  1.0
  Nb  Nb1914  1  0.95833333  0.87500000  0.04166667  1.0
  Nb  Nb1915  1  0.95833333  0.87500000  0.37500000  1.0
  Nb  Nb1916  1  0.95833333  0.87500000  0.70833333  1.0
  Nb  Nb1917  1  0.12500000  0.04166667  0.04166667  1.0
  Nb  Nb1918  1  0.12500000  0.04166667  0.37500000  1.0
  Nb  Nb1919  1  0.12500000  0.04166667  0.70833333  1.0
  Nb  Nb1920  1  0.12500000  0.37500000  0.04166667  1.0
  Nb  Nb1921  1  0.12500000  0.37500000  0.37500000  1.0
  Nb  Nb1922  1  0.12500000  0.37500000  0.70833333  1.0
  Nb  Nb1923  1  0.12500000  0.70833333  0.04166667  1.0
  Nb  Nb1924  1  0.12500000  0.70833333  0.37500000  1.0
  Nb  Nb1925  1  0.12500000  0.70833333  0.70833333  1.0
  Nb  Nb1926  1  0.45833333  0.04166667  0.04166667  1.0
  Nb  Nb1927  1  0.45833333  0.04166667  0.37500000  1.0
  Nb  Nb1928  1  0.45833333  0.04166667  0.70833333  1.0
  Nb  Nb1929  1  0.45833333  0.37500000  0.04166667  1.0
  Nb  Nb1930  1  0.45833333  0.37500000  0.37500000  1.0
  Nb  Nb1931  1  0.45833333  0.37500000  0.70833333  1.0
  Nb  Nb1932  1  0.45833333  0.70833333  0.04166667  1.0
  Nb  Nb1933  1  0.45833333  0.70833333  0.37500000  1.0
  Nb  Nb1934  1  0.45833333  0.70833333  0.70833333  1.0
  Nb  Nb1935  1  0.79166667  0.04166667  0.04166667  1.0
  Nb  Nb1936  1  0.79166667  0.04166667  0.37500000  1.0
  Nb  Nb1937  1  0.79166667  0.04166667  0.70833333  1.0
  Nb  Nb1938  1  0.79166667  0.37500000  0.04166667  1.0
  Nb  Nb1939  1  0.79166667  0.37500000  0.37500000  1.0
  Nb  Nb1940  1  0.79166667  0.37500000  0.70833333  1.0
  Nb  Nb1941  1  0.79166667  0.70833333  0.04166667  1.0
  Nb  Nb1942  1  0.79166667  0.70833333  0.37500000  1.0
  Nb  Nb1943  1  0.79166667  0.70833333  0.70833333  1.0
  Nb  Nb1944  1  0.20833333  0.12500000  0.12500000  1.0
  Nb  Nb1945  1  0.20833333  0.12500000  0.45833333  1.0
  Nb  Nb1946  1  0.20833333  0.12500000  0.79166667  1.0
  Nb  Nb1947  1  0.20833333  0.45833333  0.12500000  1.0
  Nb  Nb1948  1  0.20833333  0.45833333  0.45833333  1.0
  Nb  Nb1949  1  0.20833333  0.45833333  0.79166667  1.0
  Nb  Nb1950  1  0.20833333  0.79166667  0.12500000  1.0
  Nb  Nb1951  1  0.20833333  0.79166667  0.45833333  1.0
  Nb  Nb1952  1  0.20833333  0.79166667  0.79166667  1.0
  Nb  Nb1953  1  0.54166667  0.12500000  0.12500000  1.0
  Nb  Nb1954  1  0.54166667  0.12500000  0.45833333  1.0
  Nb  Nb1955  1  0.54166667  0.12500000  0.79166667  1.0
  Nb  Nb1956  1  0.54166667  0.45833333  0.12500000  1.0
  Nb  Nb1957  1  0.54166667  0.45833333  0.45833333  1.0
  Nb  Nb1958  1  0.54166667  0.45833333  0.79166667  1.0
  Nb  Nb1959  1  0.54166667  0.79166667  0.12500000  1.0
  Nb  Nb1960  1  0.54166667  0.79166667  0.45833333  1.0
  Nb  Nb1961  1  0.54166667  0.79166667  0.79166667  1.0
  Nb  Nb1962  1  0.87500000  0.12500000  0.12500000  1.0
  Nb  Nb1963  1  0.87500000  0.12500000  0.45833333  1.0
  Nb  Nb1964  1  0.87500000  0.12500000  0.79166667  1.0
  Nb  Nb1965  1  0.87500000  0.45833333  0.12500000  1.0
  Nb  Nb1966  1  0.87500000  0.45833333  0.45833333  1.0
  Nb  Nb1967  1  0.87500000  0.45833333  0.79166667  1.0
  Nb  Nb1968  1  0.87500000  0.79166667  0.12500000  1.0
  Nb  Nb1969  1  0.87500000  0.79166667  0.45833333  1.0
  Nb  Nb1970  1  0.87500000  0.79166667  0.79166667  1.0
  Nb  Nb1971  1  0.04166667  0.29166667  0.12500000  1.0
  Nb  Nb1972  1  0.04166667  0.29166667  0.45833333  1.0
  Nb  Nb1973  1  0.04166667  0.29166667  0.79166667  1.0
  Nb  Nb1974  1  0.04166667  0.62500000  0.12500000  1.0
  Nb  Nb1975  1  0.04166667  0.62500000  0.45833333  1.0
  Nb  Nb1976  1  0.04166667  0.62500000  0.79166667  1.0
  Nb  Nb1977  1  0.04166667  0.95833333  0.12500000  1.0
  Nb  Nb1978  1  0.04166667  0.95833333  0.45833333  1.0
  Nb  Nb1979  1  0.04166667  0.95833333  0.79166667  1.0
  Nb  Nb1980  1  0.37500000  0.29166667  0.12500000  1.0
  Nb  Nb1981  1  0.37500000  0.29166667  0.45833333  1.0
  Nb  Nb1982  1  0.37500000  0.29166667  0.79166667  1.0
  Nb  Nb1983  1  0.37500000  0.62500000  0.12500000  1.0
  Nb  Nb1984  1  0.37500000  0.62500000  0.45833333  1.0
  Nb  Nb1985  1  0.37500000  0.62500000  0.79166667  1.0
  Nb  Nb1986  1  0.37500000  0.95833333  0.12500000  1.0
  Nb  Nb1987  1  0.37500000  0.95833333  0.45833333  1.0
  Nb  Nb1988  1  0.37500000  0.95833333  0.79166667  1.0
  Nb  Nb1989  1  0.70833333  0.29166667  0.12500000  1.0
  Nb  Nb1990  1  0.70833333  0.29166667  0.45833333  1.0
  Nb  Nb1991  1  0.70833333  0.29166667  0.79166667  1.0
  Nb  Nb1992  1  0.70833333  0.62500000  0.12500000  1.0
  Nb  Nb1993  1  0.70833333  0.62500000  0.45833333  1.0
  Nb  Nb1994  1  0.70833333  0.62500000  0.79166667  1.0
  Nb  Nb1995  1  0.70833333  0.95833333  0.12500000  1.0
  Nb  Nb1996  1  0.70833333  0.95833333  0.45833333  1.0
  Nb  Nb1997  1  0.70833333  0.95833333  0.79166667  1.0
  Nb  Nb1998  1  0.04166667  0.12500000  0.29166667  1.0
  Nb  Nb1999  1  0.04166667  0.12500000  0.62500000  1.0
  Nb  Nb2000  1  0.04166667  0.12500000  0.95833333  1.0
  Nb  Nb2001  1  0.04166667  0.45833333  0.29166667  1.0
  Nb  Nb2002  1  0.04166667  0.45833333  0.62500000  1.0
  Nb  Nb2003  1  0.04166667  0.45833333  0.95833333  1.0
  Nb  Nb2004  1  0.04166667  0.79166667  0.29166667  1.0
  Nb  Nb2005  1  0.04166667  0.79166667  0.62500000  1.0
  Nb  Nb2006  1  0.04166667  0.79166667  0.95833333  1.0
  Nb  Nb2007  1  0.37500000  0.12500000  0.29166667  1.0
  Nb  Nb2008  1  0.37500000  0.12500000  0.62500000  1.0
  Nb  Nb2009  1  0.37500000  0.12500000  0.95833333  1.0
  Nb  Nb2010  1  0.37500000  0.45833333  0.29166667  1.0
  Nb  Nb2011  1  0.37500000  0.45833333  0.62500000  1.0
  Nb  Nb2012  1  0.37500000  0.45833333  0.95833333  1.0
  Nb  Nb2013  1  0.37500000  0.79166667  0.29166667  1.0
  Nb  Nb2014  1  0.37500000  0.79166667  0.62500000  1.0
  Nb  Nb2015  1  0.37500000  0.79166667  0.95833333  1.0
  Nb  Nb2016  1  0.70833333  0.12500000  0.29166667  1.0
  Nb  Nb2017  1  0.70833333  0.12500000  0.62500000  1.0
  Nb  Nb2018  1  0.70833333  0.12500000  0.95833333  1.0
  Nb  Nb2019  1  0.70833333  0.45833333  0.29166667  1.0
  Nb  Nb2020  1  0.70833333  0.45833333  0.62500000  1.0
  Nb  Nb2021  1  0.70833333  0.45833333  0.95833333  1.0
  Nb  Nb2022  1  0.70833333  0.79166667  0.29166667  1.0
  Nb  Nb2023  1  0.70833333  0.79166667  0.62500000  1.0
  Nb  Nb2024  1  0.70833333  0.79166667  0.95833333  1.0
  Nb  Nb2025  1  0.20833333  0.29166667  0.29166667  1.0
  Nb  Nb2026  1  0.20833333  0.29166667  0.62500000  1.0
  Nb  Nb2027  1  0.20833333  0.29166667  0.95833333  1.0
  Nb  Nb2028  1  0.20833333  0.62500000  0.29166667  1.0
  Nb  Nb2029  1  0.20833333  0.62500000  0.62500000  1.0
  Nb  Nb2030  1  0.20833333  0.62500000  0.95833333  1.0
  Nb  Nb2031  1  0.20833333  0.95833333  0.29166667  1.0
  Nb  Nb2032  1  0.20833333  0.95833333  0.62500000  1.0
  Nb  Nb2033  1  0.20833333  0.95833333  0.95833333  1.0
  Nb  Nb2034  1  0.54166667  0.29166667  0.29166667  1.0
  Nb  Nb2035  1  0.54166667  0.29166667  0.62500000  1.0
  Nb  Nb2036  1  0.54166667  0.29166667  0.95833333  1.0
  Nb  Nb2037  1  0.54166667  0.62500000  0.29166667  1.0
  Nb  Nb2038  1  0.54166667  0.62500000  0.62500000  1.0
  Nb  Nb2039  1  0.54166667  0.62500000  0.95833333  1.0
  Nb  Nb2040  1  0.54166667  0.95833333  0.29166667  1.0
  Nb  Nb2041  1  0.54166667  0.95833333  0.62500000  1.0
  Nb  Nb2042  1  0.54166667  0.95833333  0.95833333  1.0
  Nb  Nb2043  1  0.87500000  0.29166667  0.29166667  1.0
  Nb  Nb2044  1  0.87500000  0.29166667  0.62500000  1.0
  Nb  Nb2045  1  0.87500000  0.29166667  0.95833333  1.0
  Nb  Nb2046  1  0.87500000  0.62500000  0.29166667  1.0
  Nb  Nb2047  1  0.87500000  0.62500000  0.62500000  1.0
  Nb  Nb2048  1  0.87500000  0.62500000  0.95833333  1.0
  Nb  Nb2049  1  0.87500000  0.95833333  0.29166667  1.0
  Nb  Nb2050  1  0.87500000  0.95833333  0.62500000  1.0
  Nb  Nb2051  1  0.87500000  0.95833333  0.95833333  1.0
  Nb  Nb2052  1  0.12500000  0.20833333  0.12500000  1.0
  Nb  Nb2053  1  0.12500000  0.20833333  0.45833333  1.0
  Nb  Nb2054  1  0.12500000  0.20833333  0.79166667  1.0
  Nb  Nb2055  1  0.12500000  0.54166667  0.12500000  1.0
  Nb  Nb2056  1  0.12500000  0.54166667  0.45833333  1.0
  Nb  Nb2057  1  0.12500000  0.54166667  0.79166667  1.0
  Nb  Nb2058  1  0.12500000  0.87500000  0.12500000  1.0
  Nb  Nb2059  1  0.12500000  0.87500000  0.45833333  1.0
  Nb  Nb2060  1  0.12500000  0.87500000  0.79166667  1.0
  Nb  Nb2061  1  0.45833333  0.20833333  0.12500000  1.0
  Nb  Nb2062  1  0.45833333  0.20833333  0.45833333  1.0
  Nb  Nb2063  1  0.45833333  0.20833333  0.79166667  1.0
  Nb  Nb2064  1  0.45833333  0.54166667  0.12500000  1.0
  Nb  Nb2065  1  0.45833333  0.54166667  0.45833333  1.0
  Nb  Nb2066  1  0.45833333  0.54166667  0.79166667  1.0
  Nb  Nb2067  1  0.45833333  0.87500000  0.12500000  1.0
  Nb  Nb2068  1  0.45833333  0.87500000  0.45833333  1.0
  Nb  Nb2069  1  0.45833333  0.87500000  0.79166667  1.0
  Nb  Nb2070  1  0.79166667  0.20833333  0.12500000  1.0
  Nb  Nb2071  1  0.79166667  0.20833333  0.45833333  1.0
  Nb  Nb2072  1  0.79166667  0.20833333  0.79166667  1.0
  Nb  Nb2073  1  0.79166667  0.54166667  0.12500000  1.0
  Nb  Nb2074  1  0.79166667  0.54166667  0.45833333  1.0
  Nb  Nb2075  1  0.79166667  0.54166667  0.79166667  1.0
  Nb  Nb2076  1  0.79166667  0.87500000  0.12500000  1.0
  Nb  Nb2077  1  0.79166667  0.87500000  0.45833333  1.0
  Nb  Nb2078  1  0.79166667  0.87500000  0.79166667  1.0
  Nb  Nb2079  1  0.29166667  0.04166667  0.12500000  1.0
  Nb  Nb2080  1  0.29166667  0.04166667  0.45833333  1.0
  Nb  Nb2081  1  0.29166667  0.04166667  0.79166667  1.0
  Nb  Nb2082  1  0.29166667  0.37500000  0.12500000  1.0
  Nb  Nb2083  1  0.29166667  0.37500000  0.45833333  1.0
  Nb  Nb2084  1  0.29166667  0.37500000  0.79166667  1.0
  Nb  Nb2085  1  0.29166667  0.70833333  0.12500000  1.0
  Nb  Nb2086  1  0.29166667  0.70833333  0.45833333  1.0
  Nb  Nb2087  1  0.29166667  0.70833333  0.79166667  1.0
  Nb  Nb2088  1  0.62500000  0.04166667  0.12500000  1.0
  Nb  Nb2089  1  0.62500000  0.04166667  0.45833333  1.0
  Nb  Nb2090  1  0.62500000  0.04166667  0.79166667  1.0
  Nb  Nb2091  1  0.62500000  0.37500000  0.12500000  1.0
  Nb  Nb2092  1  0.62500000  0.37500000  0.45833333  1.0
  Nb  Nb2093  1  0.62500000  0.37500000  0.79166667  1.0
  Nb  Nb2094  1  0.62500000  0.70833333  0.12500000  1.0
  Nb  Nb2095  1  0.62500000  0.70833333  0.45833333  1.0
  Nb  Nb2096  1  0.62500000  0.70833333  0.79166667  1.0
  Nb  Nb2097  1  0.95833333  0.04166667  0.12500000  1.0
  Nb  Nb2098  1  0.95833333  0.04166667  0.45833333  1.0
  Nb  Nb2099  1  0.95833333  0.04166667  0.79166667  1.0
  Nb  Nb2100  1  0.95833333  0.37500000  0.12500000  1.0
  Nb  Nb2101  1  0.95833333  0.37500000  0.45833333  1.0
  Nb  Nb2102  1  0.95833333  0.37500000  0.79166667  1.0
  Nb  Nb2103  1  0.95833333  0.70833333  0.12500000  1.0
  Nb  Nb2104  1  0.95833333  0.70833333  0.45833333  1.0
  Nb  Nb2105  1  0.95833333  0.70833333  0.79166667  1.0
  Nb  Nb2106  1  0.29166667  0.20833333  0.29166667  1.0
  Nb  Nb2107  1  0.29166667  0.20833333  0.62500000  1.0
  Nb  Nb2108  1  0.29166667  0.20833333  0.95833333  1.0
  Nb  Nb2109  1  0.29166667  0.54166667  0.29166667  1.0
  Nb  Nb2110  1  0.29166667  0.54166667  0.62500000  1.0
  Nb  Nb2111  1  0.29166667  0.54166667  0.95833333  1.0
  Nb  Nb2112  1  0.29166667  0.87500000  0.29166667  1.0
  Nb  Nb2113  1  0.29166667  0.87500000  0.62500000  1.0
  Nb  Nb2114  1  0.29166667  0.87500000  0.95833333  1.0
  Nb  Nb2115  1  0.62500000  0.20833333  0.29166667  1.0
  Nb  Nb2116  1  0.62500000  0.20833333  0.62500000  1.0
  Nb  Nb2117  1  0.62500000  0.20833333  0.95833333  1.0
  Nb  Nb2118  1  0.62500000  0.54166667  0.29166667  1.0
  Nb  Nb2119  1  0.62500000  0.54166667  0.62500000  1.0
  Nb  Nb2120  1  0.62500000  0.54166667  0.95833333  1.0
  Nb  Nb2121  1  0.62500000  0.87500000  0.29166667  1.0
  Nb  Nb2122  1  0.62500000  0.87500000  0.62500000  1.0
  Nb  Nb2123  1  0.62500000  0.87500000  0.95833333  1.0
  Nb  Nb2124  1  0.95833333  0.20833333  0.29166667  1.0
  Nb  Nb2125  1  0.95833333  0.20833333  0.62500000  1.0
  Nb  Nb2126  1  0.95833333  0.20833333  0.95833333  1.0
  Nb  Nb2127  1  0.95833333  0.54166667  0.29166667  1.0
  Nb  Nb2128  1  0.95833333  0.54166667  0.62500000  1.0
  Nb  Nb2129  1  0.95833333  0.54166667  0.95833333  1.0
  Nb  Nb2130  1  0.95833333  0.87500000  0.29166667  1.0
  Nb  Nb2131  1  0.95833333  0.87500000  0.62500000  1.0
  Nb  Nb2132  1  0.95833333  0.87500000  0.95833333  1.0
  Nb  Nb2133  1  0.12500000  0.04166667  0.29166667  1.0
  Nb  Nb2134  1  0.12500000  0.04166667  0.62500000  1.0
  Nb  Nb2135  1  0.12500000  0.04166667  0.95833333  1.0
  Nb  Nb2136  1  0.12500000  0.37500000  0.29166667  1.0
  Nb  Nb2137  1  0.12500000  0.37500000  0.62500000  1.0
  Nb  Nb2138  1  0.12500000  0.37500000  0.95833333  1.0
  Nb  Nb2139  1  0.12500000  0.70833333  0.29166667  1.0
  Nb  Nb2140  1  0.12500000  0.70833333  0.62500000  1.0
  Nb  Nb2141  1  0.12500000  0.70833333  0.95833333  1.0
  Nb  Nb2142  1  0.45833333  0.04166667  0.29166667  1.0
  Nb  Nb2143  1  0.45833333  0.04166667  0.62500000  1.0
  Nb  Nb2144  1  0.45833333  0.04166667  0.95833333  1.0
  Nb  Nb2145  1  0.45833333  0.37500000  0.29166667  1.0
  Nb  Nb2146  1  0.45833333  0.37500000  0.62500000  1.0
  Nb  Nb2147  1  0.45833333  0.37500000  0.95833333  1.0
  Nb  Nb2148  1  0.45833333  0.70833333  0.29166667  1.0
  Nb  Nb2149  1  0.45833333  0.70833333  0.62500000  1.0
  Nb  Nb2150  1  0.45833333  0.70833333  0.95833333  1.0
  Nb  Nb2151  1  0.79166667  0.04166667  0.29166667  1.0
  Nb  Nb2152  1  0.79166667  0.04166667  0.62500000  1.0
  Nb  Nb2153  1  0.79166667  0.04166667  0.95833333  1.0
  Nb  Nb2154  1  0.79166667  0.37500000  0.29166667  1.0
  Nb  Nb2155  1  0.79166667  0.37500000  0.62500000  1.0
  Nb  Nb2156  1  0.79166667  0.37500000  0.95833333  1.0
  Nb  Nb2157  1  0.79166667  0.70833333  0.29166667  1.0
  Nb  Nb2158  1  0.79166667  0.70833333  0.62500000  1.0
  Nb  Nb2159  1  0.79166667  0.70833333  0.95833333  1.0
  Nb  Nb2160  1  0.12500000  0.12500000  0.04166667  1.0
  Nb  Nb2161  1  0.12500000  0.12500000  0.37500000  1.0
  Nb  Nb2162  1  0.12500000  0.12500000  0.70833333  1.0
  Nb  Nb2163  1  0.12500000  0.45833333  0.04166667  1.0
  Nb  Nb2164  1  0.12500000  0.45833333  0.37500000  1.0
  Nb  Nb2165  1  0.12500000  0.45833333  0.70833333  1.0
  Nb  Nb2166  1  0.12500000  0.79166667  0.04166667  1.0
  Nb  Nb2167  1  0.12500000  0.79166667  0.37500000  1.0
  Nb  Nb2168  1  0.12500000  0.79166667  0.70833333  1.0
  Nb  Nb2169  1  0.45833333  0.12500000  0.04166667  1.0
  Nb  Nb2170  1  0.45833333  0.12500000  0.37500000  1.0
  Nb  Nb2171  1  0.45833333  0.12500000  0.70833333  1.0
  Nb  Nb2172  1  0.45833333  0.45833333  0.04166667  1.0
  Nb  Nb2173  1  0.45833333  0.45833333  0.37500000  1.0
  Nb  Nb2174  1  0.45833333  0.45833333  0.70833333  1.0
  Nb  Nb2175  1  0.45833333  0.79166667  0.04166667  1.0
  Nb  Nb2176  1  0.45833333  0.79166667  0.37500000  1.0
  Nb  Nb2177  1  0.45833333  0.79166667  0.70833333  1.0
  Nb  Nb2178  1  0.79166667  0.12500000  0.04166667  1.0
  Nb  Nb2179  1  0.79166667  0.12500000  0.37500000  1.0
  Nb  Nb2180  1  0.79166667  0.12500000  0.70833333  1.0
  Nb  Nb2181  1  0.79166667  0.45833333  0.04166667  1.0
  Nb  Nb2182  1  0.79166667  0.45833333  0.37500000  1.0
  Nb  Nb2183  1  0.79166667  0.45833333  0.70833333  1.0
  Nb  Nb2184  1  0.79166667  0.79166667  0.04166667  1.0
  Nb  Nb2185  1  0.79166667  0.79166667  0.37500000  1.0
  Nb  Nb2186  1  0.79166667  0.79166667  0.70833333  1.0
  Nb  Nb2187  1  0.29166667  0.29166667  0.04166667  1.0
  Nb  Nb2188  1  0.29166667  0.29166667  0.37500000  1.0
  Nb  Nb2189  1  0.29166667  0.29166667  0.70833333  1.0
  Nb  Nb2190  1  0.29166667  0.62500000  0.04166667  1.0
  Nb  Nb2191  1  0.29166667  0.62500000  0.37500000  1.0
  Nb  Nb2192  1  0.29166667  0.62500000  0.70833333  1.0
  Nb  Nb2193  1  0.29166667  0.95833333  0.04166667  1.0
  Nb  Nb2194  1  0.29166667  0.95833333  0.37500000  1.0
  Nb  Nb2195  1  0.29166667  0.95833333  0.70833333  1.0
  Nb  Nb2196  1  0.62500000  0.29166667  0.04166667  1.0
  Nb  Nb2197  1  0.62500000  0.29166667  0.37500000  1.0
  Nb  Nb2198  1  0.62500000  0.29166667  0.70833333  1.0
  Nb  Nb2199  1  0.62500000  0.62500000  0.04166667  1.0
  Nb  Nb2200  1  0.62500000  0.62500000  0.37500000  1.0
  Nb  Nb2201  1  0.62500000  0.62500000  0.70833333  1.0
  Nb  Nb2202  1  0.62500000  0.95833333  0.04166667  1.0
  Nb  Nb2203  1  0.62500000  0.95833333  0.37500000  1.0
  Nb  Nb2204  1  0.62500000  0.95833333  0.70833333  1.0
  Nb  Nb2205  1  0.95833333  0.29166667  0.04166667  1.0
  Nb  Nb2206  1  0.95833333  0.29166667  0.37500000  1.0
  Nb  Nb2207  1  0.95833333  0.29166667  0.70833333  1.0
  Nb  Nb2208  1  0.95833333  0.62500000  0.04166667  1.0
  Nb  Nb2209  1  0.95833333  0.62500000  0.37500000  1.0
  Nb  Nb2210  1  0.95833333  0.62500000  0.70833333  1.0
  Nb  Nb2211  1  0.95833333  0.95833333  0.04166667  1.0
  Nb  Nb2212  1  0.95833333  0.95833333  0.37500000  1.0
  Nb  Nb2213  1  0.95833333  0.95833333  0.70833333  1.0
  Nb  Nb2214  1  0.29166667  0.12500000  0.20833333  1.0
  Nb  Nb2215  1  0.29166667  0.12500000  0.54166667  1.0
  Nb  Nb2216  1  0.29166667  0.12500000  0.87500000  1.0
  Nb  Nb2217  1  0.29166667  0.45833333  0.20833333  1.0
  Nb  Nb2218  1  0.29166667  0.45833333  0.54166667  1.0
  Nb  Nb2219  1  0.29166667  0.45833333  0.87500000  1.0
  Nb  Nb2220  1  0.29166667  0.79166667  0.20833333  1.0
  Nb  Nb2221  1  0.29166667  0.79166667  0.54166667  1.0
  Nb  Nb2222  1  0.29166667  0.79166667  0.87500000  1.0
  Nb  Nb2223  1  0.62500000  0.12500000  0.20833333  1.0
  Nb  Nb2224  1  0.62500000  0.12500000  0.54166667  1.0
  Nb  Nb2225  1  0.62500000  0.12500000  0.87500000  1.0
  Nb  Nb2226  1  0.62500000  0.45833333  0.20833333  1.0
  Nb  Nb2227  1  0.62500000  0.45833333  0.54166667  1.0
  Nb  Nb2228  1  0.62500000  0.45833333  0.87500000  1.0
  Nb  Nb2229  1  0.62500000  0.79166667  0.20833333  1.0
  Nb  Nb2230  1  0.62500000  0.79166667  0.54166667  1.0
  Nb  Nb2231  1  0.62500000  0.79166667  0.87500000  1.0
  Nb  Nb2232  1  0.95833333  0.12500000  0.20833333  1.0
  Nb  Nb2233  1  0.95833333  0.12500000  0.54166667  1.0
  Nb  Nb2234  1  0.95833333  0.12500000  0.87500000  1.0
  Nb  Nb2235  1  0.95833333  0.45833333  0.20833333  1.0
  Nb  Nb2236  1  0.95833333  0.45833333  0.54166667  1.0
  Nb  Nb2237  1  0.95833333  0.45833333  0.87500000  1.0
  Nb  Nb2238  1  0.95833333  0.79166667  0.20833333  1.0
  Nb  Nb2239  1  0.95833333  0.79166667  0.54166667  1.0
  Nb  Nb2240  1  0.95833333  0.79166667  0.87500000  1.0
  Nb  Nb2241  1  0.12500000  0.29166667  0.20833333  1.0
  Nb  Nb2242  1  0.12500000  0.29166667  0.54166667  1.0
  Nb  Nb2243  1  0.12500000  0.29166667  0.87500000  1.0
  Nb  Nb2244  1  0.12500000  0.62500000  0.20833333  1.0
  Nb  Nb2245  1  0.12500000  0.62500000  0.54166667  1.0
  Nb  Nb2246  1  0.12500000  0.62500000  0.87500000  1.0
  Nb  Nb2247  1  0.12500000  0.95833333  0.20833333  1.0
  Nb  Nb2248  1  0.12500000  0.95833333  0.54166667  1.0
  Nb  Nb2249  1  0.12500000  0.95833333  0.87500000  1.0
  Nb  Nb2250  1  0.45833333  0.29166667  0.20833333  1.0
  Nb  Nb2251  1  0.45833333  0.29166667  0.54166667  1.0
  Nb  Nb2252  1  0.45833333  0.29166667  0.87500000  1.0
  Nb  Nb2253  1  0.45833333  0.62500000  0.20833333  1.0
  Nb  Nb2254  1  0.45833333  0.62500000  0.54166667  1.0
  Nb  Nb2255  1  0.45833333  0.62500000  0.87500000  1.0
  Nb  Nb2256  1  0.45833333  0.95833333  0.20833333  1.0
  Nb  Nb2257  1  0.45833333  0.95833333  0.54166667  1.0
  Nb  Nb2258  1  0.45833333  0.95833333  0.87500000  1.0
  Nb  Nb2259  1  0.79166667  0.29166667  0.20833333  1.0
  Nb  Nb2260  1  0.79166667  0.29166667  0.54166667  1.0
  Nb  Nb2261  1  0.79166667  0.29166667  0.87500000  1.0
  Nb  Nb2262  1  0.79166667  0.62500000  0.20833333  1.0
  Nb  Nb2263  1  0.79166667  0.62500000  0.54166667  1.0
  Nb  Nb2264  1  0.79166667  0.62500000  0.87500000  1.0
  Nb  Nb2265  1  0.79166667  0.95833333  0.20833333  1.0
  Nb  Nb2266  1  0.79166667  0.95833333  0.54166667  1.0
  Nb  Nb2267  1  0.79166667  0.95833333  0.87500000  1.0
  Nb  Nb2268  1  0.12500000  0.12500000  0.20833333  1.0
  Nb  Nb2269  1  0.12500000  0.12500000  0.54166667  1.0
  Nb  Nb2270  1  0.12500000  0.12500000  0.87500000  1.0
  Nb  Nb2271  1  0.12500000  0.45833333  0.20833333  1.0
  Nb  Nb2272  1  0.12500000  0.45833333  0.54166667  1.0
  Nb  Nb2273  1  0.12500000  0.45833333  0.87500000  1.0
  Nb  Nb2274  1  0.12500000  0.79166667  0.20833333  1.0
  Nb  Nb2275  1  0.12500000  0.79166667  0.54166667  1.0
  Nb  Nb2276  1  0.12500000  0.79166667  0.87500000  1.0
  Nb  Nb2277  1  0.45833333  0.12500000  0.20833333  1.0
  Nb  Nb2278  1  0.45833333  0.12500000  0.54166667  1.0
  Nb  Nb2279  1  0.45833333  0.12500000  0.87500000  1.0
  Nb  Nb2280  1  0.45833333  0.45833333  0.20833333  1.0
  Nb  Nb2281  1  0.45833333  0.45833333  0.54166667  1.0
  Nb  Nb2282  1  0.45833333  0.45833333  0.87500000  1.0
  Nb  Nb2283  1  0.45833333  0.79166667  0.20833333  1.0
  Nb  Nb2284  1  0.45833333  0.79166667  0.54166667  1.0
  Nb  Nb2285  1  0.45833333  0.79166667  0.87500000  1.0
  Nb  Nb2286  1  0.79166667  0.12500000  0.20833333  1.0
  Nb  Nb2287  1  0.79166667  0.12500000  0.54166667  1.0
  Nb  Nb2288  1  0.79166667  0.12500000  0.87500000  1.0
  Nb  Nb2289  1  0.79166667  0.45833333  0.20833333  1.0
  Nb  Nb2290  1  0.79166667  0.45833333  0.54166667  1.0
  Nb  Nb2291  1  0.79166667  0.45833333  0.87500000  1.0
  Nb  Nb2292  1  0.79166667  0.79166667  0.20833333  1.0
  Nb  Nb2293  1  0.79166667  0.79166667  0.54166667  1.0
  Nb  Nb2294  1  0.79166667  0.79166667  0.87500000  1.0
  Nb  Nb2295  1  0.29166667  0.29166667  0.20833333  1.0
  Nb  Nb2296  1  0.29166667  0.29166667  0.54166667  1.0
  Nb  Nb2297  1  0.29166667  0.29166667  0.87500000  1.0
  Nb  Nb2298  1  0.29166667  0.62500000  0.20833333  1.0
  Nb  Nb2299  1  0.29166667  0.62500000  0.54166667  1.0
  Nb  Nb2300  1  0.29166667  0.62500000  0.87500000  1.0
  Nb  Nb2301  1  0.29166667  0.95833333  0.20833333  1.0
  Nb  Nb2302  1  0.29166667  0.95833333  0.54166667  1.0
  Nb  Nb2303  1  0.29166667  0.95833333  0.87500000  1.0
  Nb  Nb2304  1  0.62500000  0.29166667  0.20833333  1.0
  Nb  Nb2305  1  0.62500000  0.29166667  0.54166667  1.0
  Nb  Nb2306  1  0.62500000  0.29166667  0.87500000  1.0
  Nb  Nb2307  1  0.62500000  0.62500000  0.20833333  1.0
  Nb  Nb2308  1  0.62500000  0.62500000  0.54166667  1.0
  Nb  Nb2309  1  0.62500000  0.62500000  0.87500000  1.0
  Nb  Nb2310  1  0.62500000  0.95833333  0.20833333  1.0
  Nb  Nb2311  1  0.62500000  0.95833333  0.54166667  1.0
  Nb  Nb2312  1  0.62500000  0.95833333  0.87500000  1.0
  Nb  Nb2313  1  0.95833333  0.29166667  0.20833333  1.0
  Nb  Nb2314  1  0.95833333  0.29166667  0.54166667  1.0
  Nb  Nb2315  1  0.95833333  0.29166667  0.87500000  1.0
  Nb  Nb2316  1  0.95833333  0.62500000  0.20833333  1.0
  Nb  Nb2317  1  0.95833333  0.62500000  0.54166667  1.0
  Nb  Nb2318  1  0.95833333  0.62500000  0.87500000  1.0
  Nb  Nb2319  1  0.95833333  0.95833333  0.20833333  1.0
  Nb  Nb2320  1  0.95833333  0.95833333  0.54166667  1.0
  Nb  Nb2321  1  0.95833333  0.95833333  0.87500000  1.0
  Nb  Nb2322  1  0.29166667  0.12500000  0.04166667  1.0
  Nb  Nb2323  1  0.29166667  0.12500000  0.37500000  1.0
  Nb  Nb2324  1  0.29166667  0.12500000  0.70833333  1.0
  Nb  Nb2325  1  0.29166667  0.45833333  0.04166667  1.0
  Nb  Nb2326  1  0.29166667  0.45833333  0.37500000  1.0
  Nb  Nb2327  1  0.29166667  0.45833333  0.70833333  1.0
  Nb  Nb2328  1  0.29166667  0.79166667  0.04166667  1.0
  Nb  Nb2329  1  0.29166667  0.79166667  0.37500000  1.0
  Nb  Nb2330  1  0.29166667  0.79166667  0.70833333  1.0
  Nb  Nb2331  1  0.62500000  0.12500000  0.04166667  1.0
  Nb  Nb2332  1  0.62500000  0.12500000  0.37500000  1.0
  Nb  Nb2333  1  0.62500000  0.12500000  0.70833333  1.0
  Nb  Nb2334  1  0.62500000  0.45833333  0.04166667  1.0
  Nb  Nb2335  1  0.62500000  0.45833333  0.37500000  1.0
  Nb  Nb2336  1  0.62500000  0.45833333  0.70833333  1.0
  Nb  Nb2337  1  0.62500000  0.79166667  0.04166667  1.0
  Nb  Nb2338  1  0.62500000  0.79166667  0.37500000  1.0
  Nb  Nb2339  1  0.62500000  0.79166667  0.70833333  1.0
  Nb  Nb2340  1  0.95833333  0.12500000  0.04166667  1.0
  Nb  Nb2341  1  0.95833333  0.12500000  0.37500000  1.0
  Nb  Nb2342  1  0.95833333  0.12500000  0.70833333  1.0
  Nb  Nb2343  1  0.95833333  0.45833333  0.04166667  1.0
  Nb  Nb2344  1  0.95833333  0.45833333  0.37500000  1.0
  Nb  Nb2345  1  0.95833333  0.45833333  0.70833333  1.0
  Nb  Nb2346  1  0.95833333  0.79166667  0.04166667  1.0
  Nb  Nb2347  1  0.95833333  0.79166667  0.37500000  1.0
  Nb  Nb2348  1  0.95833333  0.79166667  0.70833333  1.0
  Nb  Nb2349  1  0.12500000  0.29166667  0.04166667  1.0
  Nb  Nb2350  1  0.12500000  0.29166667  0.37500000  1.0
  Nb  Nb2351  1  0.12500000  0.29166667  0.70833333  1.0
  Nb  Nb2352  1  0.12500000  0.62500000  0.04166667  1.0
  Nb  Nb2353  1  0.12500000  0.62500000  0.37500000  1.0
  Nb  Nb2354  1  0.12500000  0.62500000  0.70833333  1.0
  Nb  Nb2355  1  0.12500000  0.95833333  0.04166667  1.0
  Nb  Nb2356  1  0.12500000  0.95833333  0.37500000  1.0
  Nb  Nb2357  1  0.12500000  0.95833333  0.70833333  1.0
  Nb  Nb2358  1  0.45833333  0.29166667  0.04166667  1.0
  Nb  Nb2359  1  0.45833333  0.29166667  0.37500000  1.0
  Nb  Nb2360  1  0.45833333  0.29166667  0.70833333  1.0
  Nb  Nb2361  1  0.45833333  0.62500000  0.04166667  1.0
  Nb  Nb2362  1  0.45833333  0.62500000  0.37500000  1.0
  Nb  Nb2363  1  0.45833333  0.62500000  0.70833333  1.0
  Nb  Nb2364  1  0.45833333  0.95833333  0.04166667  1.0
  Nb  Nb2365  1  0.45833333  0.95833333  0.37500000  1.0
  Nb  Nb2366  1  0.45833333  0.95833333  0.70833333  1.0
  Nb  Nb2367  1  0.79166667  0.29166667  0.04166667  1.0
  Nb  Nb2368  1  0.79166667  0.29166667  0.37500000  1.0
  Nb  Nb2369  1  0.79166667  0.29166667  0.70833333  1.0
  Nb  Nb2370  1  0.79166667  0.62500000  0.04166667  1.0
  Nb  Nb2371  1  0.79166667  0.62500000  0.37500000  1.0
  Nb  Nb2372  1  0.79166667  0.62500000  0.70833333  1.0
  Nb  Nb2373  1  0.79166667  0.95833333  0.04166667  1.0
  Nb  Nb2374  1  0.79166667  0.95833333  0.37500000  1.0
  Nb  Nb2375  1  0.79166667  0.95833333  0.70833333  1.0
  Nb  Nb2376  1  0.12500000  0.04166667  0.12500000  1.0
  Nb  Nb2377  1  0.12500000  0.04166667  0.45833333  1.0
  Nb  Nb2378  1  0.12500000  0.04166667  0.79166667  1.0
  Nb  Nb2379  1  0.12500000  0.37500000  0.12500000  1.0
  Nb  Nb2380  1  0.12500000  0.37500000  0.45833333  1.0
  Nb  Nb2381  1  0.12500000  0.37500000  0.79166667  1.0
  Nb  Nb2382  1  0.12500000  0.70833333  0.12500000  1.0
  Nb  Nb2383  1  0.12500000  0.70833333  0.45833333  1.0
  Nb  Nb2384  1  0.12500000  0.70833333  0.79166667  1.0
  Nb  Nb2385  1  0.45833333  0.04166667  0.12500000  1.0
  Nb  Nb2386  1  0.45833333  0.04166667  0.45833333  1.0
  Nb  Nb2387  1  0.45833333  0.04166667  0.79166667  1.0
  Nb  Nb2388  1  0.45833333  0.37500000  0.12500000  1.0
  Nb  Nb2389  1  0.45833333  0.37500000  0.45833333  1.0
  Nb  Nb2390  1  0.45833333  0.37500000  0.79166667  1.0
  Nb  Nb2391  1  0.45833333  0.70833333  0.12500000  1.0
  Nb  Nb2392  1  0.45833333  0.70833333  0.45833333  1.0
  Nb  Nb2393  1  0.45833333  0.70833333  0.79166667  1.0
  Nb  Nb2394  1  0.79166667  0.04166667  0.12500000  1.0
  Nb  Nb2395  1  0.79166667  0.04166667  0.45833333  1.0
  Nb  Nb2396  1  0.79166667  0.04166667  0.79166667  1.0
  Nb  Nb2397  1  0.79166667  0.37500000  0.12500000  1.0
  Nb  Nb2398  1  0.79166667  0.37500000  0.45833333  1.0
  Nb  Nb2399  1  0.79166667  0.37500000  0.79166667  1.0
  Nb  Nb2400  1  0.79166667  0.70833333  0.12500000  1.0
  Nb  Nb2401  1  0.79166667  0.70833333  0.45833333  1.0
  Nb  Nb2402  1  0.79166667  0.70833333  0.79166667  1.0
  Nb  Nb2403  1  0.29166667  0.20833333  0.12500000  1.0
  Nb  Nb2404  1  0.29166667  0.20833333  0.45833333  1.0
  Nb  Nb2405  1  0.29166667  0.20833333  0.79166667  1.0
  Nb  Nb2406  1  0.29166667  0.54166667  0.12500000  1.0
  Nb  Nb2407  1  0.29166667  0.54166667  0.45833333  1.0
  Nb  Nb2408  1  0.29166667  0.54166667  0.79166667  1.0
  Nb  Nb2409  1  0.29166667  0.87500000  0.12500000  1.0
  Nb  Nb2410  1  0.29166667  0.87500000  0.45833333  1.0
  Nb  Nb2411  1  0.29166667  0.87500000  0.79166667  1.0
  Nb  Nb2412  1  0.62500000  0.20833333  0.12500000  1.0
  Nb  Nb2413  1  0.62500000  0.20833333  0.45833333  1.0
  Nb  Nb2414  1  0.62500000  0.20833333  0.79166667  1.0
  Nb  Nb2415  1  0.62500000  0.54166667  0.12500000  1.0
  Nb  Nb2416  1  0.62500000  0.54166667  0.45833333  1.0
  Nb  Nb2417  1  0.62500000  0.54166667  0.79166667  1.0
  Nb  Nb2418  1  0.62500000  0.87500000  0.12500000  1.0
  Nb  Nb2419  1  0.62500000  0.87500000  0.45833333  1.0
  Nb  Nb2420  1  0.62500000  0.87500000  0.79166667  1.0
  Nb  Nb2421  1  0.95833333  0.20833333  0.12500000  1.0
  Nb  Nb2422  1  0.95833333  0.20833333  0.45833333  1.0
  Nb  Nb2423  1  0.95833333  0.20833333  0.79166667  1.0
  Nb  Nb2424  1  0.95833333  0.54166667  0.12500000  1.0
  Nb  Nb2425  1  0.95833333  0.54166667  0.45833333  1.0
  Nb  Nb2426  1  0.95833333  0.54166667  0.79166667  1.0
  Nb  Nb2427  1  0.95833333  0.87500000  0.12500000  1.0
  Nb  Nb2428  1  0.95833333  0.87500000  0.45833333  1.0
  Nb  Nb2429  1  0.95833333  0.87500000  0.79166667  1.0
  Nb  Nb2430  1  0.29166667  0.04166667  0.29166667  1.0
  Nb  Nb2431  1  0.29166667  0.04166667  0.62500000  1.0
  Nb  Nb2432  1  0.29166667  0.04166667  0.95833333  1.0
  Nb  Nb2433  1  0.29166667  0.37500000  0.29166667  1.0
  Nb  Nb2434  1  0.29166667  0.37500000  0.62500000  1.0
  Nb  Nb2435  1  0.29166667  0.37500000  0.95833333  1.0
  Nb  Nb2436  1  0.29166667  0.70833333  0.29166667  1.0
  Nb  Nb2437  1  0.29166667  0.70833333  0.62500000  1.0
  Nb  Nb2438  1  0.29166667  0.70833333  0.95833333  1.0
  Nb  Nb2439  1  0.62500000  0.04166667  0.29166667  1.0
  Nb  Nb2440  1  0.62500000  0.04166667  0.62500000  1.0
  Nb  Nb2441  1  0.62500000  0.04166667  0.95833333  1.0
  Nb  Nb2442  1  0.62500000  0.37500000  0.29166667  1.0
  Nb  Nb2443  1  0.62500000  0.37500000  0.62500000  1.0
  Nb  Nb2444  1  0.62500000  0.37500000  0.95833333  1.0
  Nb  Nb2445  1  0.62500000  0.70833333  0.29166667  1.0
  Nb  Nb2446  1  0.62500000  0.70833333  0.62500000  1.0
  Nb  Nb2447  1  0.62500000  0.70833333  0.95833333  1.0
  Nb  Nb2448  1  0.95833333  0.04166667  0.29166667  1.0
  Nb  Nb2449  1  0.95833333  0.04166667  0.62500000  1.0
  Nb  Nb2450  1  0.95833333  0.04166667  0.95833333  1.0
  Nb  Nb2451  1  0.95833333  0.37500000  0.29166667  1.0
  Nb  Nb2452  1  0.95833333  0.37500000  0.62500000  1.0
  Nb  Nb2453  1  0.95833333  0.37500000  0.95833333  1.0
  Nb  Nb2454  1  0.95833333  0.70833333  0.29166667  1.0
  Nb  Nb2455  1  0.95833333  0.70833333  0.62500000  1.0
  Nb  Nb2456  1  0.95833333  0.70833333  0.95833333  1.0
  Nb  Nb2457  1  0.12500000  0.20833333  0.29166667  1.0
  Nb  Nb2458  1  0.12500000  0.20833333  0.62500000  1.0
  Nb  Nb2459  1  0.12500000  0.20833333  0.95833333  1.0
  Nb  Nb2460  1  0.12500000  0.54166667  0.29166667  1.0
  Nb  Nb2461  1  0.12500000  0.54166667  0.62500000  1.0
  Nb  Nb2462  1  0.12500000  0.54166667  0.95833333  1.0
  Nb  Nb2463  1  0.12500000  0.87500000  0.29166667  1.0
  Nb  Nb2464  1  0.12500000  0.87500000  0.62500000  1.0
  Nb  Nb2465  1  0.12500000  0.87500000  0.95833333  1.0
  Nb  Nb2466  1  0.45833333  0.20833333  0.29166667  1.0
  Nb  Nb2467  1  0.45833333  0.20833333  0.62500000  1.0
  Nb  Nb2468  1  0.45833333  0.20833333  0.95833333  1.0
  Nb  Nb2469  1  0.45833333  0.54166667  0.29166667  1.0
  Nb  Nb2470  1  0.45833333  0.54166667  0.62500000  1.0
  Nb  Nb2471  1  0.45833333  0.54166667  0.95833333  1.0
  Nb  Nb2472  1  0.45833333  0.87500000  0.29166667  1.0
  Nb  Nb2473  1  0.45833333  0.87500000  0.62500000  1.0
  Nb  Nb2474  1  0.45833333  0.87500000  0.95833333  1.0
  Nb  Nb2475  1  0.79166667  0.20833333  0.29166667  1.0
  Nb  Nb2476  1  0.79166667  0.20833333  0.62500000  1.0
  Nb  Nb2477  1  0.79166667  0.20833333  0.95833333  1.0
  Nb  Nb2478  1  0.79166667  0.54166667  0.29166667  1.0
  Nb  Nb2479  1  0.79166667  0.54166667  0.62500000  1.0
  Nb  Nb2480  1  0.79166667  0.54166667  0.95833333  1.0
  Nb  Nb2481  1  0.79166667  0.87500000  0.29166667  1.0
  Nb  Nb2482  1  0.79166667  0.87500000  0.62500000  1.0
  Nb  Nb2483  1  0.79166667  0.87500000  0.95833333  1.0
  Nb  Nb2484  1  0.04166667  0.12500000  0.12500000  1.0
  Nb  Nb2485  1  0.04166667  0.12500000  0.45833333  1.0
  Nb  Nb2486  1  0.04166667  0.12500000  0.79166667  1.0
  Nb  Nb2487  1  0.04166667  0.45833333  0.12500000  1.0
  Nb  Nb2488  1  0.04166667  0.45833333  0.45833333  1.0
  Nb  Nb2489  1  0.04166667  0.45833333  0.79166667  1.0
  Nb  Nb2490  1  0.04166667  0.79166667  0.12500000  1.0
  Nb  Nb2491  1  0.04166667  0.79166667  0.45833333  1.0
  Nb  Nb2492  1  0.04166667  0.79166667  0.79166667  1.0
  Nb  Nb2493  1  0.37500000  0.12500000  0.12500000  1.0
  Nb  Nb2494  1  0.37500000  0.12500000  0.45833333  1.0
  Nb  Nb2495  1  0.37500000  0.12500000  0.79166667  1.0
  Nb  Nb2496  1  0.37500000  0.45833333  0.12500000  1.0
  Nb  Nb2497  1  0.37500000  0.45833333  0.45833333  1.0
  Nb  Nb2498  1  0.37500000  0.45833333  0.79166667  1.0
  Nb  Nb2499  1  0.37500000  0.79166667  0.12500000  1.0
  Nb  Nb2500  1  0.37500000  0.79166667  0.45833333  1.0
  Nb  Nb2501  1  0.37500000  0.79166667  0.79166667  1.0
  Nb  Nb2502  1  0.70833333  0.12500000  0.12500000  1.0
  Nb  Nb2503  1  0.70833333  0.12500000  0.45833333  1.0
  Nb  Nb2504  1  0.70833333  0.12500000  0.79166667  1.0
  Nb  Nb2505  1  0.70833333  0.45833333  0.12500000  1.0
  Nb  Nb2506  1  0.70833333  0.45833333  0.45833333  1.0
  Nb  Nb2507  1  0.70833333  0.45833333  0.79166667  1.0
  Nb  Nb2508  1  0.70833333  0.79166667  0.12500000  1.0
  Nb  Nb2509  1  0.70833333  0.79166667  0.45833333  1.0
  Nb  Nb2510  1  0.70833333  0.79166667  0.79166667  1.0
  Nb  Nb2511  1  0.20833333  0.29166667  0.12500000  1.0
  Nb  Nb2512  1  0.20833333  0.29166667  0.45833333  1.0
  Nb  Nb2513  1  0.20833333  0.29166667  0.79166667  1.0
  Nb  Nb2514  1  0.20833333  0.62500000  0.12500000  1.0
  Nb  Nb2515  1  0.20833333  0.62500000  0.45833333  1.0
  Nb  Nb2516  1  0.20833333  0.62500000  0.79166667  1.0
  Nb  Nb2517  1  0.20833333  0.95833333  0.12500000  1.0
  Nb  Nb2518  1  0.20833333  0.95833333  0.45833333  1.0
  Nb  Nb2519  1  0.20833333  0.95833333  0.79166667  1.0
  Nb  Nb2520  1  0.54166667  0.29166667  0.12500000  1.0
  Nb  Nb2521  1  0.54166667  0.29166667  0.45833333  1.0
  Nb  Nb2522  1  0.54166667  0.29166667  0.79166667  1.0
  Nb  Nb2523  1  0.54166667  0.62500000  0.12500000  1.0
  Nb  Nb2524  1  0.54166667  0.62500000  0.45833333  1.0
  Nb  Nb2525  1  0.54166667  0.62500000  0.79166667  1.0
  Nb  Nb2526  1  0.54166667  0.95833333  0.12500000  1.0
  Nb  Nb2527  1  0.54166667  0.95833333  0.45833333  1.0
  Nb  Nb2528  1  0.54166667  0.95833333  0.79166667  1.0
  Nb  Nb2529  1  0.87500000  0.29166667  0.12500000  1.0
  Nb  Nb2530  1  0.87500000  0.29166667  0.45833333  1.0
  Nb  Nb2531  1  0.87500000  0.29166667  0.79166667  1.0
  Nb  Nb2532  1  0.87500000  0.62500000  0.12500000  1.0
  Nb  Nb2533  1  0.87500000  0.62500000  0.45833333  1.0
  Nb  Nb2534  1  0.87500000  0.62500000  0.79166667  1.0
  Nb  Nb2535  1  0.87500000  0.95833333  0.12500000  1.0
  Nb  Nb2536  1  0.87500000  0.95833333  0.45833333  1.0
  Nb  Nb2537  1  0.87500000  0.95833333  0.79166667  1.0
  Nb  Nb2538  1  0.20833333  0.12500000  0.29166667  1.0
  Nb  Nb2539  1  0.20833333  0.12500000  0.62500000  1.0
  Nb  Nb2540  1  0.20833333  0.12500000  0.95833333  1.0
  Nb  Nb2541  1  0.20833333  0.45833333  0.29166667  1.0
  Nb  Nb2542  1  0.20833333  0.45833333  0.62500000  1.0
  Nb  Nb2543  1  0.20833333  0.45833333  0.95833333  1.0
  Nb  Nb2544  1  0.20833333  0.79166667  0.29166667  1.0
  Nb  Nb2545  1  0.20833333  0.79166667  0.62500000  1.0
  Nb  Nb2546  1  0.20833333  0.79166667  0.95833333  1.0
  Nb  Nb2547  1  0.54166667  0.12500000  0.29166667  1.0
  Nb  Nb2548  1  0.54166667  0.12500000  0.62500000  1.0
  Nb  Nb2549  1  0.54166667  0.12500000  0.95833333  1.0
  Nb  Nb2550  1  0.54166667  0.45833333  0.29166667  1.0
  Nb  Nb2551  1  0.54166667  0.45833333  0.62500000  1.0
  Nb  Nb2552  1  0.54166667  0.45833333  0.95833333  1.0
  Nb  Nb2553  1  0.54166667  0.79166667  0.29166667  1.0
  Nb  Nb2554  1  0.54166667  0.79166667  0.62500000  1.0
  Nb  Nb2555  1  0.54166667  0.79166667  0.95833333  1.0
  Nb  Nb2556  1  0.87500000  0.12500000  0.29166667  1.0
  Nb  Nb2557  1  0.87500000  0.12500000  0.62500000  1.0
  Nb  Nb2558  1  0.87500000  0.12500000  0.95833333  1.0
  Nb  Nb2559  1  0.87500000  0.45833333  0.29166667  1.0
  Nb  Nb2560  1  0.87500000  0.45833333  0.62500000  1.0
  Nb  Nb2561  1  0.87500000  0.45833333  0.95833333  1.0
  Nb  Nb2562  1  0.87500000  0.79166667  0.29166667  1.0
  Nb  Nb2563  1  0.87500000  0.79166667  0.62500000  1.0
  Nb  Nb2564  1  0.87500000  0.79166667  0.95833333  1.0
  Nb  Nb2565  1  0.04166667  0.29166667  0.29166667  1.0
  Nb  Nb2566  1  0.04166667  0.29166667  0.62500000  1.0
  Nb  Nb2567  1  0.04166667  0.29166667  0.95833333  1.0
  Nb  Nb2568  1  0.04166667  0.62500000  0.29166667  1.0
  Nb  Nb2569  1  0.04166667  0.62500000  0.62500000  1.0
  Nb  Nb2570  1  0.04166667  0.62500000  0.95833333  1.0
  Nb  Nb2571  1  0.04166667  0.95833333  0.29166667  1.0
  Nb  Nb2572  1  0.04166667  0.95833333  0.62500000  1.0
  Nb  Nb2573  1  0.04166667  0.95833333  0.95833333  1.0
  Nb  Nb2574  1  0.37500000  0.29166667  0.29166667  1.0
  Nb  Nb2575  1  0.37500000  0.29166667  0.62500000  1.0
  Nb  Nb2576  1  0.37500000  0.29166667  0.95833333  1.0
  Nb  Nb2577  1  0.37500000  0.62500000  0.29166667  1.0
  Nb  Nb2578  1  0.37500000  0.62500000  0.62500000  1.0
  Nb  Nb2579  1  0.37500000  0.62500000  0.95833333  1.0
  Nb  Nb2580  1  0.37500000  0.95833333  0.29166667  1.0
  Nb  Nb2581  1  0.37500000  0.95833333  0.62500000  1.0
  Nb  Nb2582  1  0.37500000  0.95833333  0.95833333  1.0
  Nb  Nb2583  1  0.70833333  0.29166667  0.29166667  1.0
  Nb  Nb2584  1  0.70833333  0.29166667  0.62500000  1.0
  Nb  Nb2585  1  0.70833333  0.29166667  0.95833333  1.0
  Nb  Nb2586  1  0.70833333  0.62500000  0.29166667  1.0
  Nb  Nb2587  1  0.70833333  0.62500000  0.62500000  1.0
  Nb  Nb2588  1  0.70833333  0.62500000  0.95833333  1.0
  Nb  Nb2589  1  0.70833333  0.95833333  0.29166667  1.0
  Nb  Nb2590  1  0.70833333  0.95833333  0.62500000  1.0
  Nb  Nb2591  1  0.70833333  0.95833333  0.95833333  1.0
  O  O2592  1  0.25000000  0.25000000  0.25000000  1.0
  O  O2593  1  0.25000000  0.25000000  0.58333333  1.0
  O  O2594  1  0.25000000  0.25000000  0.91666667  1.0
  O  O2595  1  0.25000000  0.58333333  0.25000000  1.0
  O  O2596  1  0.25000000  0.58333333  0.58333333  1.0
  O  O2597  1  0.25000000  0.58333333  0.91666667  1.0
  O  O2598  1  0.25000000  0.91666667  0.25000000  1.0
  O  O2599  1  0.25000000  0.91666667  0.58333333  1.0
  O  O2600  1  0.25000000  0.91666667  0.91666667  1.0
  O  O2601  1  0.58333333  0.25000000  0.25000000  1.0
  O  O2602  1  0.58333333  0.25000000  0.58333333  1.0
  O  O2603  1  0.58333333  0.25000000  0.91666667  1.0
  O  O2604  1  0.58333333  0.58333333  0.25000000  1.0
  O  O2605  1  0.58333333  0.58333333  0.58333333  1.0
  O  O2606  1  0.58333333  0.58333333  0.91666667  1.0
  O  O2607  1  0.58333333  0.91666667  0.25000000  1.0
  O  O2608  1  0.58333333  0.91666667  0.58333333  1.0
  O  O2609  1  0.58333333  0.91666667  0.91666667  1.0
  O  O2610  1  0.91666667  0.25000000  0.25000000  1.0
  O  O2611  1  0.91666667  0.25000000  0.58333333  1.0
  O  O2612  1  0.91666667  0.25000000  0.91666667  1.0
  O  O2613  1  0.91666667  0.58333333  0.25000000  1.0
  O  O2614  1  0.91666667  0.58333333  0.58333333  1.0
  O  O2615  1  0.91666667  0.58333333  0.91666667  1.0
  O  O2616  1  0.91666667  0.91666667  0.25000000  1.0
  O  O2617  1  0.91666667  0.91666667  0.58333333  1.0
  O  O2618  1  0.91666667  0.91666667  0.91666667  1.0
  O  O2619  1  0.08333333  0.08333333  0.25000000  1.0
  O  O2620  1  0.08333333  0.08333333  0.58333333  1.0
  O  O2621  1  0.08333333  0.08333333  0.91666667  1.0
  O  O2622  1  0.08333333  0.41666667  0.25000000  1.0
  O  O2623  1  0.08333333  0.41666667  0.58333333  1.0
  O  O2624  1  0.08333333  0.41666667  0.91666667  1.0
  O  O2625  1  0.08333333  0.75000000  0.25000000  1.0
  O  O2626  1  0.08333333  0.75000000  0.58333333  1.0
  O  O2627  1  0.08333333  0.75000000  0.91666667  1.0
  O  O2628  1  0.41666667  0.08333333  0.25000000  1.0
  O  O2629  1  0.41666667  0.08333333  0.58333333  1.0
  O  O2630  1  0.41666667  0.08333333  0.91666667  1.0
  O  O2631  1  0.41666667  0.41666667  0.25000000  1.0
  O  O2632  1  0.41666667  0.41666667  0.58333333  1.0
  O  O2633  1  0.41666667  0.41666667  0.91666667  1.0
  O  O2634  1  0.41666667  0.75000000  0.25000000  1.0
  O  O2635  1  0.41666667  0.75000000  0.58333333  1.0
  O  O2636  1  0.41666667  0.75000000  0.91666667  1.0
  O  O2637  1  0.75000000  0.08333333  0.25000000  1.0
  O  O2638  1  0.75000000  0.08333333  0.58333333  1.0
  O  O2639  1  0.75000000  0.08333333  0.91666667  1.0
  O  O2640  1  0.75000000  0.41666667  0.25000000  1.0
  O  O2641  1  0.75000000  0.41666667  0.58333333  1.0
  O  O2642  1  0.75000000  0.41666667  0.91666667  1.0
  O  O2643  1  0.75000000  0.75000000  0.25000000  1.0
  O  O2644  1  0.75000000  0.75000000  0.58333333  1.0
  O  O2645  1  0.75000000  0.75000000  0.91666667  1.0
  O  O2646  1  0.08333333  0.25000000  0.08333333  1.0
  O  O2647  1  0.08333333  0.25000000  0.41666667  1.0
  O  O2648  1  0.08333333  0.25000000  0.75000000  1.0
  O  O2649  1  0.08333333  0.58333333  0.08333333  1.0
  O  O2650  1  0.08333333  0.58333333  0.41666667  1.0
  O  O2651  1  0.08333333  0.58333333  0.75000000  1.0
  O  O2652  1  0.08333333  0.91666667  0.08333333  1.0
  O  O2653  1  0.08333333  0.91666667  0.41666667  1.0
  O  O2654  1  0.08333333  0.91666667  0.75000000  1.0
  O  O2655  1  0.41666667  0.25000000  0.08333333  1.0
  O  O2656  1  0.41666667  0.25000000  0.41666667  1.0
  O  O2657  1  0.41666667  0.25000000  0.75000000  1.0
  O  O2658  1  0.41666667  0.58333333  0.08333333  1.0
  O  O2659  1  0.41666667  0.58333333  0.41666667  1.0
  O  O2660  1  0.41666667  0.58333333  0.75000000  1.0
  O  O2661  1  0.41666667  0.91666667  0.08333333  1.0
  O  O2662  1  0.41666667  0.91666667  0.41666667  1.0
  O  O2663  1  0.41666667  0.91666667  0.75000000  1.0
  O  O2664  1  0.75000000  0.25000000  0.08333333  1.0
  O  O2665  1  0.75000000  0.25000000  0.41666667  1.0
  O  O2666  1  0.75000000  0.25000000  0.75000000  1.0
  O  O2667  1  0.75000000  0.58333333  0.08333333  1.0
  O  O2668  1  0.75000000  0.58333333  0.41666667  1.0
  O  O2669  1  0.75000000  0.58333333  0.75000000  1.0
  O  O2670  1  0.75000000  0.91666667  0.08333333  1.0
  O  O2671  1  0.75000000  0.91666667  0.41666667  1.0
  O  O2672  1  0.75000000  0.91666667  0.75000000  1.0
  O  O2673  1  0.25000000  0.08333333  0.08333333  1.0
  O  O2674  1  0.25000000  0.08333333  0.41666667  1.0
  O  O2675  1  0.25000000  0.08333333  0.75000000  1.0
  O  O2676  1  0.25000000  0.41666667  0.08333333  1.0
  O  O2677  1  0.25000000  0.41666667  0.41666667  1.0
  O  O2678  1  0.25000000  0.41666667  0.75000000  1.0
  O  O2679  1  0.25000000  0.75000000  0.08333333  1.0
  O  O2680  1  0.25000000  0.75000000  0.41666667  1.0
  O  O2681  1  0.25000000  0.75000000  0.75000000  1.0
  O  O2682  1  0.58333333  0.08333333  0.08333333  1.0
  O  O2683  1  0.58333333  0.08333333  0.41666667  1.0
  O  O2684  1  0.58333333  0.08333333  0.75000000  1.0
  O  O2685  1  0.58333333  0.41666667  0.08333333  1.0
  O  O2686  1  0.58333333  0.41666667  0.41666667  1.0
  O  O2687  1  0.58333333  0.41666667  0.75000000  1.0
  O  O2688  1  0.58333333  0.75000000  0.08333333  1.0
  O  O2689  1  0.58333333  0.75000000  0.41666667  1.0
  O  O2690  1  0.58333333  0.75000000  0.75000000  1.0
  O  O2691  1  0.91666667  0.08333333  0.08333333  1.0
  O  O2692  1  0.91666667  0.08333333  0.41666667  1.0
  O  O2693  1  0.91666667  0.08333333  0.75000000  1.0
  O  O2694  1  0.91666667  0.41666667  0.08333333  1.0
  O  O2695  1  0.91666667  0.41666667  0.41666667  1.0
  O  O2696  1  0.91666667  0.41666667  0.75000000  1.0
  O  O2697  1  0.91666667  0.75000000  0.08333333  1.0
  O  O2698  1  0.91666667  0.75000000  0.41666667  1.0
  O  O2699  1  0.91666667  0.75000000  0.75000000  1.0
  O  O2700  1  0.25000000  0.16666667  0.16666667  1.0
  O  O2701  1  0.25000000  0.16666667  0.50000000  1.0
  O  O2702  1  0.25000000  0.16666667  0.83333333  1.0
  O  O2703  1  0.25000000  0.50000000  0.16666667  1.0
  O  O2704  1  0.25000000  0.50000000  0.50000000  1.0
  O  O2705  1  0.25000000  0.50000000  0.83333333  1.0
  O  O2706  1  0.25000000  0.83333333  0.16666667  1.0
  O  O2707  1  0.25000000  0.83333333  0.50000000  1.0
  O  O2708  1  0.25000000  0.83333333  0.83333333  1.0
  O  O2709  1  0.58333333  0.16666667  0.16666667  1.0
  O  O2710  1  0.58333333  0.16666667  0.50000000  1.0
  O  O2711  1  0.58333333  0.16666667  0.83333333  1.0
  O  O2712  1  0.58333333  0.50000000  0.16666667  1.0
  O  O2713  1  0.58333333  0.50000000  0.50000000  1.0
  O  O2714  1  0.58333333  0.50000000  0.83333333  1.0
  O  O2715  1  0.58333333  0.83333333  0.16666667  1.0
  O  O2716  1  0.58333333  0.83333333  0.50000000  1.0
  O  O2717  1  0.58333333  0.83333333  0.83333333  1.0
  O  O2718  1  0.91666667  0.16666667  0.16666667  1.0
  O  O2719  1  0.91666667  0.16666667  0.50000000  1.0
  O  O2720  1  0.91666667  0.16666667  0.83333333  1.0
  O  O2721  1  0.91666667  0.50000000  0.16666667  1.0
  O  O2722  1  0.91666667  0.50000000  0.50000000  1.0
  O  O2723  1  0.91666667  0.50000000  0.83333333  1.0
  O  O2724  1  0.91666667  0.83333333  0.16666667  1.0
  O  O2725  1  0.91666667  0.83333333  0.50000000  1.0
  O  O2726  1  0.91666667  0.83333333  0.83333333  1.0
  O  O2727  1  0.08333333  0.00000000  0.16666667  1.0
  O  O2728  1  0.08333333  0.00000000  0.50000000  1.0
  O  O2729  1  0.08333333  0.00000000  0.83333333  1.0
  O  O2730  1  0.08333333  0.33333333  0.16666667  1.0
  O  O2731  1  0.08333333  0.33333333  0.50000000  1.0
  O  O2732  1  0.08333333  0.33333333  0.83333333  1.0
  O  O2733  1  0.08333333  0.66666667  0.16666667  1.0
  O  O2734  1  0.08333333  0.66666667  0.50000000  1.0
  O  O2735  1  0.08333333  0.66666667  0.83333333  1.0
  O  O2736  1  0.41666667  0.00000000  0.16666667  1.0
  O  O2737  1  0.41666667  0.00000000  0.50000000  1.0
  O  O2738  1  0.41666667  0.00000000  0.83333333  1.0
  O  O2739  1  0.41666667  0.33333333  0.16666667  1.0
  O  O2740  1  0.41666667  0.33333333  0.50000000  1.0
  O  O2741  1  0.41666667  0.33333333  0.83333333  1.0
  O  O2742  1  0.41666667  0.66666667  0.16666667  1.0
  O  O2743  1  0.41666667  0.66666667  0.50000000  1.0
  O  O2744  1  0.41666667  0.66666667  0.83333333  1.0
  O  O2745  1  0.75000000  0.00000000  0.16666667  1.0
  O  O2746  1  0.75000000  0.00000000  0.50000000  1.0
  O  O2747  1  0.75000000  0.00000000  0.83333333  1.0
  O  O2748  1  0.75000000  0.33333333  0.16666667  1.0
  O  O2749  1  0.75000000  0.33333333  0.50000000  1.0
  O  O2750  1  0.75000000  0.33333333  0.83333333  1.0
  O  O2751  1  0.75000000  0.66666667  0.16666667  1.0
  O  O2752  1  0.75000000  0.66666667  0.50000000  1.0
  O  O2753  1  0.75000000  0.66666667  0.83333333  1.0
  O  O2754  1  0.08333333  0.16666667  0.00000000  1.0
  O  O2755  1  0.08333333  0.16666667  0.33333333  1.0
  O  O2756  1  0.08333333  0.16666667  0.66666667  1.0
  O  O2757  1  0.08333333  0.50000000  0.00000000  1.0
  O  O2758  1  0.08333333  0.50000000  0.33333333  1.0
  O  O2759  1  0.08333333  0.50000000  0.66666667  1.0
  O  O2760  1  0.08333333  0.83333333  0.00000000  1.0
  O  O2761  1  0.08333333  0.83333333  0.33333333  1.0
  O  O2762  1  0.08333333  0.83333333  0.66666667  1.0
  O  O2763  1  0.41666667  0.16666667  0.00000000  1.0
  O  O2764  1  0.41666667  0.16666667  0.33333333  1.0
  O  O2765  1  0.41666667  0.16666667  0.66666667  1.0
  O  O2766  1  0.41666667  0.50000000  0.00000000  1.0
  O  O2767  1  0.41666667  0.50000000  0.33333333  1.0
  O  O2768  1  0.41666667  0.50000000  0.66666667  1.0
  O  O2769  1  0.41666667  0.83333333  0.00000000  1.0
  O  O2770  1  0.41666667  0.83333333  0.33333333  1.0
  O  O2771  1  0.41666667  0.83333333  0.66666667  1.0
  O  O2772  1  0.75000000  0.16666667  0.00000000  1.0
  O  O2773  1  0.75000000  0.16666667  0.33333333  1.0
  O  O2774  1  0.75000000  0.16666667  0.66666667  1.0
  O  O2775  1  0.75000000  0.50000000  0.00000000  1.0
  O  O2776  1  0.75000000  0.50000000  0.33333333  1.0
  O  O2777  1  0.75000000  0.50000000  0.66666667  1.0
  O  O2778  1  0.75000000  0.83333333  0.00000000  1.0
  O  O2779  1  0.75000000  0.83333333  0.33333333  1.0
  O  O2780  1  0.75000000  0.83333333  0.66666667  1.0
  O  O2781  1  0.25000000  0.00000000  0.00000000  1.0
  O  O2782  1  0.25000000  0.00000000  0.33333333  1.0
  O  O2783  1  0.25000000  0.00000000  0.66666667  1.0
  O  O2784  1  0.25000000  0.33333333  0.00000000  1.0
  O  O2785  1  0.25000000  0.33333333  0.33333333  1.0
  O  O2786  1  0.25000000  0.33333333  0.66666667  1.0
  O  O2787  1  0.25000000  0.66666667  0.00000000  1.0
  O  O2788  1  0.25000000  0.66666667  0.33333333  1.0
  O  O2789  1  0.25000000  0.66666667  0.66666667  1.0
  O  O2790  1  0.58333333  0.00000000  0.00000000  1.0
  O  O2791  1  0.58333333  0.00000000  0.33333333  1.0
  O  O2792  1  0.58333333  0.00000000  0.66666667  1.0
  O  O2793  1  0.58333333  0.33333333  0.00000000  1.0
  O  O2794  1  0.58333333  0.33333333  0.33333333  1.0
  O  O2795  1  0.58333333  0.33333333  0.66666667  1.0
  O  O2796  1  0.58333333  0.66666667  0.00000000  1.0
  O  O2797  1  0.58333333  0.66666667  0.33333333  1.0
  O  O2798  1  0.58333333  0.66666667  0.66666667  1.0
  O  O2799  1  0.91666667  0.00000000  0.00000000  1.0
  O  O2800  1  0.91666667  0.00000000  0.33333333  1.0
  O  O2801  1  0.91666667  0.00000000  0.66666667  1.0
  O  O2802  1  0.91666667  0.33333333  0.00000000  1.0
  O  O2803  1  0.91666667  0.33333333  0.33333333  1.0
  O  O2804  1  0.91666667  0.33333333  0.66666667  1.0
  O  O2805  1  0.91666667  0.66666667  0.00000000  1.0
  O  O2806  1  0.91666667  0.66666667  0.33333333  1.0
  O  O2807  1  0.91666667  0.66666667  0.66666667  1.0
  O  O2808  1  0.16666667  0.25000000  0.16666667  1.0
  O  O2809  1  0.16666667  0.25000000  0.50000000  1.0
  O  O2810  1  0.16666667  0.25000000  0.83333333  1.0
  O  O2811  1  0.16666667  0.58333333  0.16666667  1.0
  O  O2812  1  0.16666667  0.58333333  0.50000000  1.0
  O  O2813  1  0.16666667  0.58333333  0.83333333  1.0
  O  O2814  1  0.16666667  0.91666667  0.16666667  1.0
  O  O2815  1  0.16666667  0.91666667  0.50000000  1.0
  O  O2816  1  0.16666667  0.91666667  0.83333333  1.0
  O  O2817  1  0.50000000  0.25000000  0.16666667  1.0
  O  O2818  1  0.50000000  0.25000000  0.50000000  1.0
  O  O2819  1  0.50000000  0.25000000  0.83333333  1.0
  O  O2820  1  0.50000000  0.58333333  0.16666667  1.0
  O  O2821  1  0.50000000  0.58333333  0.50000000  1.0
  O  O2822  1  0.50000000  0.58333333  0.83333333  1.0
  O  O2823  1  0.50000000  0.91666667  0.16666667  1.0
  O  O2824  1  0.50000000  0.91666667  0.50000000  1.0
  O  O2825  1  0.50000000  0.91666667  0.83333333  1.0
  O  O2826  1  0.83333333  0.25000000  0.16666667  1.0
  O  O2827  1  0.83333333  0.25000000  0.50000000  1.0
  O  O2828  1  0.83333333  0.25000000  0.83333333  1.0
  O  O2829  1  0.83333333  0.58333333  0.16666667  1.0
  O  O2830  1  0.83333333  0.58333333  0.50000000  1.0
  O  O2831  1  0.83333333  0.58333333  0.83333333  1.0
  O  O2832  1  0.83333333  0.91666667  0.16666667  1.0
  O  O2833  1  0.83333333  0.91666667  0.50000000  1.0
  O  O2834  1  0.83333333  0.91666667  0.83333333  1.0
  O  O2835  1  0.00000000  0.08333333  0.16666667  1.0
  O  O2836  1  0.00000000  0.08333333  0.50000000  1.0
  O  O2837  1  0.00000000  0.08333333  0.83333333  1.0
  O  O2838  1  0.00000000  0.41666667  0.16666667  1.0
  O  O2839  1  0.00000000  0.41666667  0.50000000  1.0
  O  O2840  1  0.00000000  0.41666667  0.83333333  1.0
  O  O2841  1  1.00000000  0.75000000  0.16666667  1.0
  O  O2842  1  1.00000000  0.75000000  0.50000000  1.0
  O  O2843  1  1.00000000  0.75000000  0.83333333  1.0
  O  O2844  1  0.33333333  0.08333333  0.16666667  1.0
  O  O2845  1  0.33333333  0.08333333  0.50000000  1.0
  O  O2846  1  0.33333333  0.08333333  0.83333333  1.0
  O  O2847  1  0.33333333  0.41666667  0.16666667  1.0
  O  O2848  1  0.33333333  0.41666667  0.50000000  1.0
  O  O2849  1  0.33333333  0.41666667  0.83333333  1.0
  O  O2850  1  0.33333333  0.75000000  0.16666667  1.0
  O  O2851  1  0.33333333  0.75000000  0.50000000  1.0
  O  O2852  1  0.33333333  0.75000000  0.83333333  1.0
  O  O2853  1  0.66666667  0.08333333  0.16666667  1.0
  O  O2854  1  0.66666667  0.08333333  0.50000000  1.0
  O  O2855  1  0.66666667  0.08333333  0.83333333  1.0
  O  O2856  1  0.66666667  0.41666667  0.16666667  1.0
  O  O2857  1  0.66666667  0.41666667  0.50000000  1.0
  O  O2858  1  0.66666667  0.41666667  0.83333333  1.0
  O  O2859  1  0.66666667  0.75000000  0.16666667  1.0
  O  O2860  1  0.66666667  0.75000000  0.50000000  1.0
  O  O2861  1  0.66666667  0.75000000  0.83333333  1.0
  O  O2862  1  0.00000000  0.25000000  0.00000000  1.0
  O  O2863  1  0.00000000  0.25000000  0.33333333  1.0
  O  O2864  1  0.00000000  0.25000000  0.66666667  1.0
  O  O2865  1  0.00000000  0.58333333  0.00000000  1.0
  O  O2866  1  0.00000000  0.58333333  0.33333333  1.0
  O  O2867  1  0.00000000  0.58333333  0.66666667  1.0
  O  O2868  1  0.00000000  0.91666667  0.00000000  1.0
  O  O2869  1  0.00000000  0.91666667  0.33333333  1.0
  O  O2870  1  0.00000000  0.91666667  0.66666667  1.0
  O  O2871  1  0.33333333  0.25000000  0.00000000  1.0
  O  O2872  1  0.33333333  0.25000000  0.33333333  1.0
  O  O2873  1  0.33333333  0.25000000  0.66666667  1.0
  O  O2874  1  0.33333333  0.58333333  0.00000000  1.0
  O  O2875  1  0.33333333  0.58333333  0.33333333  1.0
  O  O2876  1  0.33333333  0.58333333  0.66666667  1.0
  O  O2877  1  0.33333333  0.91666667  0.00000000  1.0
  O  O2878  1  0.33333333  0.91666667  0.33333333  1.0
  O  O2879  1  0.33333333  0.91666667  0.66666667  1.0
  O  O2880  1  0.66666667  0.25000000  0.00000000  1.0
  O  O2881  1  0.66666667  0.25000000  0.33333333  1.0
  O  O2882  1  0.66666667  0.25000000  0.66666667  1.0
  O  O2883  1  0.66666667  0.58333333  0.00000000  1.0
  O  O2884  1  0.66666667  0.58333333  0.33333333  1.0
  O  O2885  1  0.66666667  0.58333333  0.66666667  1.0
  O  O2886  1  0.66666667  0.91666667  0.00000000  1.0
  O  O2887  1  0.66666667  0.91666667  0.33333333  1.0
  O  O2888  1  0.66666667  0.91666667  0.66666667  1.0
  O  O2889  1  0.16666667  0.08333333  1.00000000  1.0
  O  O2890  1  0.16666667  0.08333333  0.33333333  1.0
  O  O2891  1  0.16666667  0.08333333  0.66666667  1.0
  O  O2892  1  0.16666667  0.41666667  0.00000000  1.0
  O  O2893  1  0.16666667  0.41666667  0.33333333  1.0
  O  O2894  1  0.16666667  0.41666667  0.66666667  1.0
  O  O2895  1  0.16666667  0.75000000  0.00000000  1.0
  O  O2896  1  0.16666667  0.75000000  0.33333333  1.0
  O  O2897  1  0.16666667  0.75000000  0.66666667  1.0
  O  O2898  1  0.50000000  0.08333333  0.00000000  1.0
  O  O2899  1  0.50000000  0.08333333  0.33333333  1.0
  O  O2900  1  0.50000000  0.08333333  0.66666667  1.0
  O  O2901  1  0.50000000  0.41666667  0.00000000  1.0
  O  O2902  1  0.50000000  0.41666667  0.33333333  1.0
  O  O2903  1  0.50000000  0.41666667  0.66666667  1.0
  O  O2904  1  0.50000000  0.75000000  0.00000000  1.0
  O  O2905  1  0.50000000  0.75000000  0.33333333  1.0
  O  O2906  1  0.50000000  0.75000000  0.66666667  1.0
  O  O2907  1  0.83333333  0.08333333  0.00000000  1.0
  O  O2908  1  0.83333333  0.08333333  0.33333333  1.0
  O  O2909  1  0.83333333  0.08333333  0.66666667  1.0
  O  O2910  1  0.83333333  0.41666667  0.00000000  1.0
  O  O2911  1  0.83333333  0.41666667  0.33333333  1.0
  O  O2912  1  0.83333333  0.41666667  0.66666667  1.0
  O  O2913  1  0.83333333  0.75000000  0.00000000  1.0
  O  O2914  1  0.83333333  0.75000000  0.33333333  1.0
  O  O2915  1  0.83333333  0.75000000  0.66666667  1.0
  O  O2916  1  0.16666667  0.16666667  0.08333333  1.0
  O  O2917  1  0.16666667  0.16666667  0.41666667  1.0
  O  O2918  1  0.16666667  0.16666667  0.75000000  1.0
  O  O2919  1  0.16666667  0.50000000  0.08333333  1.0
  O  O2920  1  0.16666667  0.50000000  0.41666667  1.0
  O  O2921  1  0.16666667  0.50000000  0.75000000  1.0
  O  O2922  1  0.16666667  0.83333333  0.08333333  1.0
  O  O2923  1  0.16666667  0.83333333  0.41666667  1.0
  O  O2924  1  0.16666667  0.83333333  0.75000000  1.0
  O  O2925  1  0.50000000  0.16666667  0.08333333  1.0
  O  O2926  1  0.50000000  0.16666667  0.41666667  1.0
  O  O2927  1  0.50000000  0.16666667  0.75000000  1.0
  O  O2928  1  0.50000000  0.50000000  0.08333333  1.0
  O  O2929  1  0.50000000  0.50000000  0.41666667  1.0
  O  O2930  1  0.50000000  0.50000000  0.75000000  1.0
  O  O2931  1  0.50000000  0.83333333  0.08333333  1.0
  O  O2932  1  0.50000000  0.83333333  0.41666667  1.0
  O  O2933  1  0.50000000  0.83333333  0.75000000  1.0
  O  O2934  1  0.83333333  0.16666667  0.08333333  1.0
  O  O2935  1  0.83333333  0.16666667  0.41666667  1.0
  O  O2936  1  0.83333333  0.16666667  0.75000000  1.0
  O  O2937  1  0.83333333  0.50000000  0.08333333  1.0
  O  O2938  1  0.83333333  0.50000000  0.41666667  1.0
  O  O2939  1  0.83333333  0.50000000  0.75000000  1.0
  O  O2940  1  0.83333333  0.83333333  0.08333333  1.0
  O  O2941  1  0.83333333  0.83333333  0.41666667  1.0
  O  O2942  1  0.83333333  0.83333333  0.75000000  1.0
  O  O2943  1  0.00000000  0.00000000  0.08333333  1.0
  O  O2944  1  0.00000000  0.00000000  0.41666667  1.0
  O  O2945  1  0.00000000  0.00000000  0.75000000  1.0
  O  O2946  1  0.00000000  0.33333333  0.08333333  1.0
  O  O2947  1  0.00000000  0.33333333  0.41666667  1.0
  O  O2948  1  0.00000000  0.33333333  0.75000000  1.0
  O  O2949  1  0.00000000  0.66666667  0.08333333  1.0
  O  O2950  1  0.00000000  0.66666667  0.41666667  1.0
  O  O2951  1  0.00000000  0.66666667  0.75000000  1.0
  O  O2952  1  0.33333333  0.00000000  0.08333333  1.0
  O  O2953  1  0.33333333  0.00000000  0.41666667  1.0
  O  O2954  1  0.33333333  0.00000000  0.75000000  1.0
  O  O2955  1  0.33333333  0.33333333  0.08333333  1.0
  O  O2956  1  0.33333333  0.33333333  0.41666667  1.0
  O  O2957  1  0.33333333  0.33333333  0.75000000  1.0
  O  O2958  1  0.33333333  0.66666667  0.08333333  1.0
  O  O2959  1  0.33333333  0.66666667  0.41666667  1.0
  O  O2960  1  0.33333333  0.66666667  0.75000000  1.0
  O  O2961  1  0.66666667  0.00000000  0.08333333  1.0
  O  O2962  1  0.66666667  0.00000000  0.41666667  1.0
  O  O2963  1  0.66666667  0.00000000  0.75000000  1.0
  O  O2964  1  0.66666667  0.33333333  0.08333333  1.0
  O  O2965  1  0.66666667  0.33333333  0.41666667  1.0
  O  O2966  1  0.66666667  0.33333333  0.75000000  1.0
  O  O2967  1  0.66666667  0.66666667  0.08333333  1.0
  O  O2968  1  0.66666667  0.66666667  0.41666667  1.0
  O  O2969  1  0.66666667  0.66666667  0.75000000  1.0
  O  O2970  1  0.00000000  0.16666667  0.25000000  1.0
  O  O2971  1  0.00000000  0.16666667  0.58333333  1.0
  O  O2972  1  0.00000000  0.16666667  0.91666667  1.0
  O  O2973  1  0.00000000  0.50000000  0.25000000  1.0
  O  O2974  1  0.00000000  0.50000000  0.58333333  1.0
  O  O2975  1  0.00000000  0.50000000  0.91666667  1.0
  O  O2976  1  0.00000000  0.83333333  0.25000000  1.0
  O  O2977  1  0.00000000  0.83333333  0.58333333  1.0
  O  O2978  1  0.00000000  0.83333333  0.91666667  1.0
  O  O2979  1  0.33333333  0.16666667  0.25000000  1.0
  O  O2980  1  0.33333333  0.16666667  0.58333333  1.0
  O  O2981  1  0.33333333  0.16666667  0.91666667  1.0
  O  O2982  1  0.33333333  0.50000000  0.25000000  1.0
  O  O2983  1  0.33333333  0.50000000  0.58333333  1.0
  O  O2984  1  0.33333333  0.50000000  0.91666667  1.0
  O  O2985  1  0.33333333  0.83333333  0.25000000  1.0
  O  O2986  1  0.33333333  0.83333333  0.58333333  1.0
  O  O2987  1  0.33333333  0.83333333  0.91666667  1.0
  O  O2988  1  0.66666667  0.16666667  0.25000000  1.0
  O  O2989  1  0.66666667  0.16666667  0.58333333  1.0
  O  O2990  1  0.66666667  0.16666667  0.91666667  1.0
  O  O2991  1  0.66666667  0.50000000  0.25000000  1.0
  O  O2992  1  0.66666667  0.50000000  0.58333333  1.0
  O  O2993  1  0.66666667  0.50000000  0.91666667  1.0
  O  O2994  1  0.66666667  0.83333333  0.25000000  1.0
  O  O2995  1  0.66666667  0.83333333  0.58333333  1.0
  O  O2996  1  0.66666667  0.83333333  0.91666667  1.0
  O  O2997  1  0.16666667  0.00000000  0.25000000  1.0
  O  O2998  1  0.16666667  0.00000000  0.58333333  1.0
  O  O2999  1  0.16666667  0.00000000  0.91666667  1.0
  O  O3000  1  0.16666667  0.33333333  0.25000000  1.0
  O  O3001  1  0.16666667  0.33333333  0.58333333  1.0
  O  O3002  1  0.16666667  0.33333333  0.91666667  1.0
  O  O3003  1  0.16666667  0.66666667  0.25000000  1.0
  O  O3004  1  0.16666667  0.66666667  0.58333333  1.0
  O  O3005  1  0.16666667  0.66666667  0.91666667  1.0
  O  O3006  1  0.50000000  0.00000000  0.25000000  1.0
  O  O3007  1  0.50000000  0.00000000  0.58333333  1.0
  O  O3008  1  0.50000000  0.00000000  0.91666667  1.0
  O  O3009  1  0.50000000  0.33333333  0.25000000  1.0
  O  O3010  1  0.50000000  0.33333333  0.58333333  1.0
  O  O3011  1  0.50000000  0.33333333  0.91666667  1.0
  O  O3012  1  0.50000000  0.66666667  0.25000000  1.0
  O  O3013  1  0.50000000  0.66666667  0.58333333  1.0
  O  O3014  1  0.50000000  0.66666667  0.91666667  1.0
  O  O3015  1  0.83333333  0.00000000  0.25000000  1.0
  O  O3016  1  0.83333333  0.00000000  0.58333333  1.0
  O  O3017  1  0.83333333  0.00000000  0.91666667  1.0
  O  O3018  1  0.83333333  0.33333333  0.25000000  1.0
  O  O3019  1  0.83333333  0.33333333  0.58333333  1.0
  O  O3020  1  0.83333333  0.33333333  0.91666667  1.0
  O  O3021  1  0.83333333  0.66666667  0.25000000  1.0
  O  O3022  1  0.83333333  0.66666667  0.58333333  1.0
  O  O3023  1  0.83333333  0.66666667  0.91666667  1.0
  O  O3024  1  0.16666667  0.16666667  0.25000000  1.0
  O  O3025  1  0.16666667  0.16666667  0.58333333  1.0
  O  O3026  1  0.16666667  0.16666667  0.91666667  1.0
  O  O3027  1  0.16666667  0.50000000  0.25000000  1.0
  O  O3028  1  0.16666667  0.50000000  0.58333333  1.0
  O  O3029  1  0.16666667  0.50000000  0.91666667  1.0
  O  O3030  1  0.16666667  0.83333333  0.25000000  1.0
  O  O3031  1  0.16666667  0.83333333  0.58333333  1.0
  O  O3032  1  0.16666667  0.83333333  0.91666667  1.0
  O  O3033  1  0.50000000  0.16666667  0.25000000  1.0
  O  O3034  1  0.50000000  0.16666667  0.58333333  1.0
  O  O3035  1  0.50000000  0.16666667  0.91666667  1.0
  O  O3036  1  0.50000000  0.50000000  0.25000000  1.0
  O  O3037  1  0.50000000  0.50000000  0.58333333  1.0
  O  O3038  1  0.50000000  0.50000000  0.91666667  1.0
  O  O3039  1  0.50000000  0.83333333  0.25000000  1.0
  O  O3040  1  0.50000000  0.83333333  0.58333333  1.0
  O  O3041  1  0.50000000  0.83333333  0.91666667  1.0
  O  O3042  1  0.83333333  0.16666667  0.25000000  1.0
  O  O3043  1  0.83333333  0.16666667  0.58333333  1.0
  O  O3044  1  0.83333333  0.16666667  0.91666667  1.0
  O  O3045  1  0.83333333  0.50000000  0.25000000  1.0
  O  O3046  1  0.83333333  0.50000000  0.58333333  1.0
  O  O3047  1  0.83333333  0.50000000  0.91666667  1.0
  O  O3048  1  0.83333333  0.83333333  0.25000000  1.0
  O  O3049  1  0.83333333  0.83333333  0.58333333  1.0
  O  O3050  1  0.83333333  0.83333333  0.91666667  1.0
  O  O3051  1  0.00000000  0.00000000  0.25000000  1.0
  O  O3052  1  0.00000000  0.00000000  0.58333333  1.0
  O  O3053  1  0.00000000  0.00000000  0.91666667  1.0
  O  O3054  1  0.00000000  0.33333333  0.25000000  1.0
  O  O3055  1  0.00000000  0.33333333  0.58333333  1.0
  O  O3056  1  0.00000000  0.33333333  0.91666667  1.0
  O  O3057  1  0.00000000  0.66666667  0.25000000  1.0
  O  O3058  1  0.00000000  0.66666667  0.58333333  1.0
  O  O3059  1  0.00000000  0.66666667  0.91666667  1.0
  O  O3060  1  0.33333333  0.00000000  0.25000000  1.0
  O  O3061  1  0.33333333  0.00000000  0.58333333  1.0
  O  O3062  1  0.33333333  0.00000000  0.91666667  1.0
  O  O3063  1  0.33333333  0.33333333  0.25000000  1.0
  O  O3064  1  0.33333333  0.33333333  0.58333333  1.0
  O  O3065  1  0.33333333  0.33333333  0.91666667  1.0
  O  O3066  1  0.33333333  0.66666667  0.25000000  1.0
  O  O3067  1  0.33333333  0.66666667  0.58333333  1.0
  O  O3068  1  0.33333333  0.66666667  0.91666667  1.0
  O  O3069  1  0.66666667  0.00000000  0.25000000  1.0
  O  O3070  1  0.66666667  0.00000000  0.58333333  1.0
  O  O3071  1  0.66666667  0.00000000  0.91666667  1.0
  O  O3072  1  0.66666667  0.33333333  0.25000000  1.0
  O  O3073  1  0.66666667  0.33333333  0.58333333  1.0
  O  O3074  1  0.66666667  0.33333333  0.91666667  1.0
  O  O3075  1  0.66666667  0.66666667  0.25000000  1.0
  O  O3076  1  0.66666667  0.66666667  0.58333333  1.0
  O  O3077  1  0.66666667  0.66666667  0.91666667  1.0
  O  O3078  1  0.00000000  0.16666667  0.08333333  1.0
  O  O3079  1  0.00000000  0.16666667  0.41666667  1.0
  O  O3080  1  0.00000000  0.16666667  0.75000000  1.0
  O  O3081  1  0.00000000  0.50000000  0.08333333  1.0
  O  O3082  1  0.00000000  0.50000000  0.41666667  1.0
  O  O3083  1  0.00000000  0.50000000  0.75000000  1.0
  O  O3084  1  0.00000000  0.83333333  0.08333333  1.0
  O  O3085  1  0.00000000  0.83333333  0.41666667  1.0
  O  O3086  1  0.00000000  0.83333333  0.75000000  1.0
  O  O3087  1  0.33333333  0.16666667  0.08333333  1.0
  O  O3088  1  0.33333333  0.16666667  0.41666667  1.0
  O  O3089  1  0.33333333  0.16666667  0.75000000  1.0
  O  O3090  1  0.33333333  0.50000000  0.08333333  1.0
  O  O3091  1  0.33333333  0.50000000  0.41666667  1.0
  O  O3092  1  0.33333333  0.50000000  0.75000000  1.0
  O  O3093  1  0.33333333  0.83333333  0.08333333  1.0
  O  O3094  1  0.33333333  0.83333333  0.41666667  1.0
  O  O3095  1  0.33333333  0.83333333  0.75000000  1.0
  O  O3096  1  0.66666667  0.16666667  0.08333333  1.0
  O  O3097  1  0.66666667  0.16666667  0.41666667  1.0
  O  O3098  1  0.66666667  0.16666667  0.75000000  1.0
  O  O3099  1  0.66666667  0.50000000  0.08333333  1.0
  O  O3100  1  0.66666667  0.50000000  0.41666667  1.0
  O  O3101  1  0.66666667  0.50000000  0.75000000  1.0
  O  O3102  1  0.66666667  0.83333333  0.08333333  1.0
  O  O3103  1  0.66666667  0.83333333  0.41666667  1.0
  O  O3104  1  0.66666667  0.83333333  0.75000000  1.0
  O  O3105  1  0.16666667  0.00000000  0.08333333  1.0
  O  O3106  1  0.16666667  0.00000000  0.41666667  1.0
  O  O3107  1  0.16666667  0.00000000  0.75000000  1.0
  O  O3108  1  0.16666667  0.33333333  0.08333333  1.0
  O  O3109  1  0.16666667  0.33333333  0.41666667  1.0
  O  O3110  1  0.16666667  0.33333333  0.75000000  1.0
  O  O3111  1  0.16666667  0.66666667  0.08333333  1.0
  O  O3112  1  0.16666667  0.66666667  0.41666667  1.0
  O  O3113  1  0.16666667  0.66666667  0.75000000  1.0
  O  O3114  1  0.50000000  0.00000000  0.08333333  1.0
  O  O3115  1  0.50000000  0.00000000  0.41666667  1.0
  O  O3116  1  0.50000000  0.00000000  0.75000000  1.0
  O  O3117  1  0.50000000  0.33333333  0.08333333  1.0
  O  O3118  1  0.50000000  0.33333333  0.41666667  1.0
  O  O3119  1  0.50000000  0.33333333  0.75000000  1.0
  O  O3120  1  0.50000000  0.66666667  0.08333333  1.0
  O  O3121  1  0.50000000  0.66666667  0.41666667  1.0
  O  O3122  1  0.50000000  0.66666667  0.75000000  1.0
  O  O3123  1  0.83333333  0.00000000  0.08333333  1.0
  O  O3124  1  0.83333333  0.00000000  0.41666667  1.0
  O  O3125  1  0.83333333  0.00000000  0.75000000  1.0
  O  O3126  1  0.83333333  0.33333333  0.08333333  1.0
  O  O3127  1  0.83333333  0.33333333  0.41666667  1.0
  O  O3128  1  0.83333333  0.33333333  0.75000000  1.0
  O  O3129  1  0.83333333  0.66666667  0.08333333  1.0
  O  O3130  1  0.83333333  0.66666667  0.41666667  1.0
  O  O3131  1  0.83333333  0.66666667  0.75000000  1.0
  O  O3132  1  0.16666667  0.08333333  0.16666667  1.0
  O  O3133  1  0.16666667  0.08333333  0.50000000  1.0
  O  O3134  1  0.16666667  0.08333333  0.83333333  1.0
  O  O3135  1  0.16666667  0.41666667  0.16666667  1.0
  O  O3136  1  0.16666667  0.41666667  0.50000000  1.0
  O  O3137  1  0.16666667  0.41666667  0.83333333  1.0
  O  O3138  1  0.16666667  0.75000000  0.16666667  1.0
  O  O3139  1  0.16666667  0.75000000  0.50000000  1.0
  O  O3140  1  0.16666667  0.75000000  0.83333333  1.0
  O  O3141  1  0.50000000  0.08333333  0.16666667  1.0
  O  O3142  1  0.50000000  0.08333333  0.50000000  1.0
  O  O3143  1  0.50000000  0.08333333  0.83333333  1.0
  O  O3144  1  0.50000000  0.41666667  0.16666667  1.0
  O  O3145  1  0.50000000  0.41666667  0.50000000  1.0
  O  O3146  1  0.50000000  0.41666667  0.83333333  1.0
  O  O3147  1  0.50000000  0.75000000  0.16666667  1.0
  O  O3148  1  0.50000000  0.75000000  0.50000000  1.0
  O  O3149  1  0.50000000  0.75000000  0.83333333  1.0
  O  O3150  1  0.83333333  0.08333333  0.16666667  1.0
  O  O3151  1  0.83333333  0.08333333  0.50000000  1.0
  O  O3152  1  0.83333333  0.08333333  0.83333333  1.0
  O  O3153  1  0.83333333  0.41666667  0.16666667  1.0
  O  O3154  1  0.83333333  0.41666667  0.50000000  1.0
  O  O3155  1  0.83333333  0.41666667  0.83333333  1.0
  O  O3156  1  0.83333333  0.75000000  0.16666667  1.0
  O  O3157  1  0.83333333  0.75000000  0.50000000  1.0
  O  O3158  1  0.83333333  0.75000000  0.83333333  1.0
  O  O3159  1  0.00000000  0.25000000  0.16666667  1.0
  O  O3160  1  0.00000000  0.25000000  0.50000000  1.0
  O  O3161  1  0.00000000  0.25000000  0.83333333  1.0
  O  O3162  1  0.00000000  0.58333333  0.16666667  1.0
  O  O3163  1  0.00000000  0.58333333  0.50000000  1.0
  O  O3164  1  0.00000000  0.58333333  0.83333333  1.0
  O  O3165  1  0.00000000  0.91666667  0.16666667  1.0
  O  O3166  1  0.00000000  0.91666667  0.50000000  1.0
  O  O3167  1  0.00000000  0.91666667  0.83333333  1.0
  O  O3168  1  0.33333333  0.25000000  0.16666667  1.0
  O  O3169  1  0.33333333  0.25000000  0.50000000  1.0
  O  O3170  1  0.33333333  0.25000000  0.83333333  1.0
  O  O3171  1  0.33333333  0.58333333  0.16666667  1.0
  O  O3172  1  0.33333333  0.58333333  0.50000000  1.0
  O  O3173  1  0.33333333  0.58333333  0.83333333  1.0
  O  O3174  1  0.33333333  0.91666667  0.16666667  1.0
  O  O3175  1  0.33333333  0.91666667  0.50000000  1.0
  O  O3176  1  0.33333333  0.91666667  0.83333333  1.0
  O  O3177  1  0.66666667  0.25000000  0.16666667  1.0
  O  O3178  1  0.66666667  0.25000000  0.50000000  1.0
  O  O3179  1  0.66666667  0.25000000  0.83333333  1.0
  O  O3180  1  0.66666667  0.58333333  0.16666667  1.0
  O  O3181  1  0.66666667  0.58333333  0.50000000  1.0
  O  O3182  1  0.66666667  0.58333333  0.83333333  1.0
  O  O3183  1  0.66666667  0.91666667  0.16666667  1.0
  O  O3184  1  0.66666667  0.91666667  0.50000000  1.0
  O  O3185  1  0.66666667  0.91666667  0.83333333  1.0
  O  O3186  1  0.00000000  0.08333333  0.00000000  1.0
  O  O3187  1  0.00000000  0.08333333  0.33333333  1.0
  O  O3188  1  0.00000000  0.08333333  0.66666667  1.0
  O  O3189  1  0.00000000  0.41666667  0.00000000  1.0
  O  O3190  1  0.00000000  0.41666667  0.33333333  1.0
  O  O3191  1  0.00000000  0.41666667  0.66666667  1.0
  O  O3192  1  1.00000000  0.75000000  0.00000000  1.0
  O  O3193  1  1.00000000  0.75000000  0.33333333  1.0
  O  O3194  1  1.00000000  0.75000000  0.66666667  1.0
  O  O3195  1  0.33333333  0.08333333  0.00000000  1.0
  O  O3196  1  0.33333333  0.08333333  0.33333333  1.0
  O  O3197  1  0.33333333  0.08333333  0.66666667  1.0
  O  O3198  1  0.33333333  0.41666667  0.00000000  1.0
  O  O3199  1  0.33333333  0.41666667  0.33333333  1.0
  O  O3200  1  0.33333333  0.41666667  0.66666667  1.0
  O  O3201  1  0.33333333  0.75000000  0.00000000  1.0
  O  O3202  1  0.33333333  0.75000000  0.33333333  1.0
  O  O3203  1  0.33333333  0.75000000  0.66666667  1.0
  O  O3204  1  0.66666667  0.08333333  0.00000000  1.0
  O  O3205  1  0.66666667  0.08333333  0.33333333  1.0
  O  O3206  1  0.66666667  0.08333333  0.66666667  1.0
  O  O3207  1  0.66666667  0.41666667  0.00000000  1.0
  O  O3208  1  0.66666667  0.41666667  0.33333333  1.0
  O  O3209  1  0.66666667  0.41666667  0.66666667  1.0
  O  O3210  1  0.66666667  0.75000000  0.00000000  1.0
  O  O3211  1  0.66666667  0.75000000  0.33333333  1.0
  O  O3212  1  0.66666667  0.75000000  0.66666667  1.0
  O  O3213  1  0.16666667  0.25000000  1.00000000  1.0
  O  O3214  1  0.16666667  0.25000000  0.33333333  1.0
  O  O3215  1  0.16666667  0.25000000  0.66666667  1.0
  O  O3216  1  0.16666667  0.58333333  0.00000000  1.0
  O  O3217  1  0.16666667  0.58333333  0.33333333  1.0
  O  O3218  1  0.16666667  0.58333333  0.66666667  1.0
  O  O3219  1  0.16666667  0.91666667  0.00000000  1.0
  O  O3220  1  0.16666667  0.91666667  0.33333333  1.0
  O  O3221  1  0.16666667  0.91666667  0.66666667  1.0
  O  O3222  1  0.50000000  0.25000000  0.00000000  1.0
  O  O3223  1  0.50000000  0.25000000  0.33333333  1.0
  O  O3224  1  0.50000000  0.25000000  0.66666667  1.0
  O  O3225  1  0.50000000  0.58333333  1.00000000  1.0
  O  O3226  1  0.50000000  0.58333333  0.33333333  1.0
  O  O3227  1  0.50000000  0.58333333  0.66666667  1.0
  O  O3228  1  0.50000000  0.91666667  0.00000000  1.0
  O  O3229  1  0.50000000  0.91666667  0.33333333  1.0
  O  O3230  1  0.50000000  0.91666667  0.66666667  1.0
  O  O3231  1  0.83333333  0.25000000  0.00000000  1.0
  O  O3232  1  0.83333333  0.25000000  0.33333333  1.0
  O  O3233  1  0.83333333  0.25000000  0.66666667  1.0
  O  O3234  1  0.83333333  0.58333333  1.00000000  1.0
  O  O3235  1  0.83333333  0.58333333  0.33333333  1.0
  O  O3236  1  0.83333333  0.58333333  0.66666667  1.0
  O  O3237  1  0.83333333  0.91666667  1.00000000  1.0
  O  O3238  1  0.83333333  0.91666667  0.33333333  1.0
  O  O3239  1  0.83333333  0.91666667  0.66666667  1.0
  O  O3240  1  0.08333333  0.16666667  0.16666667  1.0
  O  O3241  1  0.08333333  0.16666667  0.50000000  1.0
  O  O3242  1  0.08333333  0.16666667  0.83333333  1.0
  O  O3243  1  0.08333333  0.50000000  0.16666667  1.0
  O  O3244  1  0.08333333  0.50000000  0.50000000  1.0
  O  O3245  1  0.08333333  0.50000000  0.83333333  1.0
  O  O3246  1  0.08333333  0.83333333  0.16666667  1.0
  O  O3247  1  0.08333333  0.83333333  0.50000000  1.0
  O  O3248  1  0.08333333  0.83333333  0.83333333  1.0
  O  O3249  1  0.41666667  0.16666667  0.16666667  1.0
  O  O3250  1  0.41666667  0.16666667  0.50000000  1.0
  O  O3251  1  0.41666667  0.16666667  0.83333333  1.0
  O  O3252  1  0.41666667  0.50000000  0.16666667  1.0
  O  O3253  1  0.41666667  0.50000000  0.50000000  1.0
  O  O3254  1  0.41666667  0.50000000  0.83333333  1.0
  O  O3255  1  0.41666667  0.83333333  0.16666667  1.0
  O  O3256  1  0.41666667  0.83333333  0.50000000  1.0
  O  O3257  1  0.41666667  0.83333333  0.83333333  1.0
  O  O3258  1  0.75000000  0.16666667  0.16666667  1.0
  O  O3259  1  0.75000000  0.16666667  0.50000000  1.0
  O  O3260  1  0.75000000  0.16666667  0.83333333  1.0
  O  O3261  1  0.75000000  0.50000000  0.16666667  1.0
  O  O3262  1  0.75000000  0.50000000  0.50000000  1.0
  O  O3263  1  0.75000000  0.50000000  0.83333333  1.0
  O  O3264  1  0.75000000  0.83333333  0.16666667  1.0
  O  O3265  1  0.75000000  0.83333333  0.50000000  1.0
  O  O3266  1  0.75000000  0.83333333  0.83333333  1.0
  O  O3267  1  0.25000000  0.00000000  0.16666667  1.0
  O  O3268  1  0.25000000  0.00000000  0.50000000  1.0
  O  O3269  1  0.25000000  0.00000000  0.83333333  1.0
  O  O3270  1  0.25000000  0.33333333  0.16666667  1.0
  O  O3271  1  0.25000000  0.33333333  0.50000000  1.0
  O  O3272  1  0.25000000  0.33333333  0.83333333  1.0
  O  O3273  1  0.25000000  0.66666667  0.16666667  1.0
  O  O3274  1  0.25000000  0.66666667  0.50000000  1.0
  O  O3275  1  0.25000000  0.66666667  0.83333333  1.0
  O  O3276  1  0.58333333  0.00000000  0.16666667  1.0
  O  O3277  1  0.58333333  0.00000000  0.50000000  1.0
  O  O3278  1  0.58333333  0.00000000  0.83333333  1.0
  O  O3279  1  0.58333333  0.33333333  0.16666667  1.0
  O  O3280  1  0.58333333  0.33333333  0.50000000  1.0
  O  O3281  1  0.58333333  0.33333333  0.83333333  1.0
  O  O3282  1  0.58333333  0.66666667  0.16666667  1.0
  O  O3283  1  0.58333333  0.66666667  0.50000000  1.0
  O  O3284  1  0.58333333  0.66666667  0.83333333  1.0
  O  O3285  1  0.91666667  0.00000000  0.16666667  1.0
  O  O3286  1  0.91666667  0.00000000  0.50000000  1.0
  O  O3287  1  0.91666667  0.00000000  0.83333333  1.0
  O  O3288  1  0.91666667  0.33333333  0.16666667  1.0
  O  O3289  1  0.91666667  0.33333333  0.50000000  1.0
  O  O3290  1  0.91666667  0.33333333  0.83333333  1.0
  O  O3291  1  0.91666667  0.66666667  0.16666667  1.0
  O  O3292  1  0.91666667  0.66666667  0.50000000  1.0
  O  O3293  1  0.91666667  0.66666667  0.83333333  1.0
  O  O3294  1  0.25000000  0.16666667  1.00000000  1.0
  O  O3295  1  0.25000000  0.16666667  0.33333333  1.0
  O  O3296  1  0.25000000  0.16666667  0.66666667  1.0
  O  O3297  1  0.25000000  0.50000000  0.00000000  1.0
  O  O3298  1  0.25000000  0.50000000  0.33333333  1.0
  O  O3299  1  0.25000000  0.50000000  0.66666667  1.0
  O  O3300  1  0.25000000  0.83333333  0.00000000  1.0
  O  O3301  1  0.25000000  0.83333333  0.33333333  1.0
  O  O3302  1  0.25000000  0.83333333  0.66666667  1.0
  O  O3303  1  0.58333333  0.16666667  0.00000000  1.0
  O  O3304  1  0.58333333  0.16666667  0.33333333  1.0
  O  O3305  1  0.58333333  0.16666667  0.66666667  1.0
  O  O3306  1  0.58333333  0.50000000  1.00000000  1.0
  O  O3307  1  0.58333333  0.50000000  0.33333333  1.0
  O  O3308  1  0.58333333  0.50000000  0.66666667  1.0
  O  O3309  1  0.58333333  0.83333333  0.00000000  1.0
  O  O3310  1  0.58333333  0.83333333  0.33333333  1.0
  O  O3311  1  0.58333333  0.83333333  0.66666667  1.0
  O  O3312  1  0.91666667  0.16666667  0.00000000  1.0
  O  O3313  1  0.91666667  0.16666667  0.33333333  1.0
  O  O3314  1  0.91666667  0.16666667  0.66666667  1.0
  O  O3315  1  0.91666667  0.50000000  1.00000000  1.0
  O  O3316  1  0.91666667  0.50000000  0.33333333  1.0
  O  O3317  1  0.91666667  0.50000000  0.66666667  1.0
  O  O3318  1  0.91666667  0.83333333  1.00000000  1.0
  O  O3319  1  0.91666667  0.83333333  0.33333333  1.0
  O  O3320  1  0.91666667  0.83333333  0.66666667  1.0
  O  O3321  1  0.08333333  0.00000000  0.00000000  1.0
  O  O3322  1  0.08333333  0.00000000  0.33333333  1.0
  O  O3323  1  0.08333333  0.00000000  0.66666667  1.0
  O  O3324  1  0.08333333  0.33333333  0.00000000  1.0
  O  O3325  1  0.08333333  0.33333333  0.33333333  1.0
  O  O3326  1  0.08333333  0.33333333  0.66666667  1.0
  O  O3327  1  0.08333333  0.66666667  0.00000000  1.0
  O  O3328  1  0.08333333  0.66666667  0.33333333  1.0
  O  O3329  1  0.08333333  0.66666667  0.66666667  1.0
  O  O3330  1  0.41666667  0.00000000  0.00000000  1.0
  O  O3331  1  0.41666667  0.00000000  0.33333333  1.0
  O  O3332  1  0.41666667  0.00000000  0.66666667  1.0
  O  O3333  1  0.41666667  0.33333333  0.00000000  1.0
  O  O3334  1  0.41666667  0.33333333  0.33333333  1.0
  O  O3335  1  0.41666667  0.33333333  0.66666667  1.0
  O  O3336  1  0.41666667  0.66666667  0.00000000  1.0
  O  O3337  1  0.41666667  0.66666667  0.33333333  1.0
  O  O3338  1  0.41666667  0.66666667  0.66666667  1.0
  O  O3339  1  0.75000000  0.00000000  0.00000000  1.0
  O  O3340  1  0.75000000  0.00000000  0.33333333  1.0
  O  O3341  1  0.75000000  0.00000000  0.66666667  1.0
  O  O3342  1  0.75000000  0.33333333  0.00000000  1.0
  O  O3343  1  0.75000000  0.33333333  0.33333333  1.0
  O  O3344  1  0.75000000  0.33333333  0.66666667  1.0
  O  O3345  1  0.75000000  0.66666667  0.00000000  1.0
  O  O3346  1  0.75000000  0.66666667  0.33333333  1.0
  O  O3347  1  0.75000000  0.66666667  0.66666667  1.0
  O  O3348  1  0.08333333  0.08333333  0.08333333  1.0
  O  O3349  1  0.08333333  0.08333333  0.41666667  1.0
  O  O3350  1  0.08333333  0.08333333  0.75000000  1.0
  O  O3351  1  0.08333333  0.41666667  0.08333333  1.0
  O  O3352  1  0.08333333  0.41666667  0.41666667  1.0
  O  O3353  1  0.08333333  0.41666667  0.75000000  1.0
  O  O3354  1  0.08333333  0.75000000  0.08333333  1.0
  O  O3355  1  0.08333333  0.75000000  0.41666667  1.0
  O  O3356  1  0.08333333  0.75000000  0.75000000  1.0
  O  O3357  1  0.41666667  0.08333333  0.08333333  1.0
  O  O3358  1  0.41666667  0.08333333  0.41666667  1.0
  O  O3359  1  0.41666667  0.08333333  0.75000000  1.0
  O  O3360  1  0.41666667  0.41666667  0.08333333  1.0
  O  O3361  1  0.41666667  0.41666667  0.41666667  1.0
  O  O3362  1  0.41666667  0.41666667  0.75000000  1.0
  O  O3363  1  0.41666667  0.75000000  0.08333333  1.0
  O  O3364  1  0.41666667  0.75000000  0.41666667  1.0
  O  O3365  1  0.41666667  0.75000000  0.75000000  1.0
  O  O3366  1  0.75000000  0.08333333  0.08333333  1.0
  O  O3367  1  0.75000000  0.08333333  0.41666667  1.0
  O  O3368  1  0.75000000  0.08333333  0.75000000  1.0
  O  O3369  1  0.75000000  0.41666667  0.08333333  1.0
  O  O3370  1  0.75000000  0.41666667  0.41666667  1.0
  O  O3371  1  0.75000000  0.41666667  0.75000000  1.0
  O  O3372  1  0.75000000  0.75000000  0.08333333  1.0
  O  O3373  1  0.75000000  0.75000000  0.41666667  1.0
  O  O3374  1  0.75000000  0.75000000  0.75000000  1.0
  O  O3375  1  0.25000000  0.25000000  0.08333333  1.0
  O  O3376  1  0.25000000  0.25000000  0.41666667  1.0
  O  O3377  1  0.25000000  0.25000000  0.75000000  1.0
  O  O3378  1  0.25000000  0.58333333  0.08333333  1.0
  O  O3379  1  0.25000000  0.58333333  0.41666667  1.0
  O  O3380  1  0.25000000  0.58333333  0.75000000  1.0
  O  O3381  1  0.25000000  0.91666667  0.08333333  1.0
  O  O3382  1  0.25000000  0.91666667  0.41666667  1.0
  O  O3383  1  0.25000000  0.91666667  0.75000000  1.0
  O  O3384  1  0.58333333  0.25000000  0.08333333  1.0
  O  O3385  1  0.58333333  0.25000000  0.41666667  1.0
  O  O3386  1  0.58333333  0.25000000  0.75000000  1.0
  O  O3387  1  0.58333333  0.58333333  0.08333333  1.0
  O  O3388  1  0.58333333  0.58333333  0.41666667  1.0
  O  O3389  1  0.58333333  0.58333333  0.75000000  1.0
  O  O3390  1  0.58333333  0.91666667  0.08333333  1.0
  O  O3391  1  0.58333333  0.91666667  0.41666667  1.0
  O  O3392  1  0.58333333  0.91666667  0.75000000  1.0
  O  O3393  1  0.91666667  0.25000000  0.08333333  1.0
  O  O3394  1  0.91666667  0.25000000  0.41666667  1.0
  O  O3395  1  0.91666667  0.25000000  0.75000000  1.0
  O  O3396  1  0.91666667  0.58333333  0.08333333  1.0
  O  O3397  1  0.91666667  0.58333333  0.41666667  1.0
  O  O3398  1  0.91666667  0.58333333  0.75000000  1.0
  O  O3399  1  0.91666667  0.91666667  0.08333333  1.0
  O  O3400  1  0.91666667  0.91666667  0.41666667  1.0
  O  O3401  1  0.91666667  0.91666667  0.75000000  1.0
  O  O3402  1  0.25000000  0.08333333  0.25000000  1.0
  O  O3403  1  0.25000000  0.08333333  0.58333333  1.0
  O  O3404  1  0.25000000  0.08333333  0.91666667  1.0
  O  O3405  1  0.25000000  0.41666667  0.25000000  1.0
  O  O3406  1  0.25000000  0.41666667  0.58333333  1.0
  O  O3407  1  0.25000000  0.41666667  0.91666667  1.0
  O  O3408  1  0.25000000  0.75000000  0.25000000  1.0
  O  O3409  1  0.25000000  0.75000000  0.58333333  1.0
  O  O3410  1  0.25000000  0.75000000  0.91666667  1.0
  O  O3411  1  0.58333333  0.08333333  0.25000000  1.0
  O  O3412  1  0.58333333  0.08333333  0.58333333  1.0
  O  O3413  1  0.58333333  0.08333333  0.91666667  1.0
  O  O3414  1  0.58333333  0.41666667  0.25000000  1.0
  O  O3415  1  0.58333333  0.41666667  0.58333333  1.0
  O  O3416  1  0.58333333  0.41666667  0.91666667  1.0
  O  O3417  1  0.58333333  0.75000000  0.25000000  1.0
  O  O3418  1  0.58333333  0.75000000  0.58333333  1.0
  O  O3419  1  0.58333333  0.75000000  0.91666667  1.0
  O  O3420  1  0.91666667  0.08333333  0.25000000  1.0
  O  O3421  1  0.91666667  0.08333333  0.58333333  1.0
  O  O3422  1  0.91666667  0.08333333  0.91666667  1.0
  O  O3423  1  0.91666667  0.41666667  0.25000000  1.0
  O  O3424  1  0.91666667  0.41666667  0.58333333  1.0
  O  O3425  1  0.91666667  0.41666667  0.91666667  1.0
  O  O3426  1  0.91666667  0.75000000  0.25000000  1.0
  O  O3427  1  0.91666667  0.75000000  0.58333333  1.0
  O  O3428  1  0.91666667  0.75000000  0.91666667  1.0
  O  O3429  1  0.08333333  0.25000000  0.25000000  1.0
  O  O3430  1  0.08333333  0.25000000  0.58333333  1.0
  O  O3431  1  0.08333333  0.25000000  0.91666667  1.0
  O  O3432  1  0.08333333  0.58333333  0.25000000  1.0
  O  O3433  1  0.08333333  0.58333333  0.58333333  1.0
  O  O3434  1  0.08333333  0.58333333  0.91666667  1.0
  O  O3435  1  0.08333333  0.91666667  0.25000000  1.0
  O  O3436  1  0.08333333  0.91666667  0.58333333  1.0
  O  O3437  1  0.08333333  0.91666667  0.91666667  1.0
  O  O3438  1  0.41666667  0.25000000  0.25000000  1.0
  O  O3439  1  0.41666667  0.25000000  0.58333333  1.0
  O  O3440  1  0.41666667  0.25000000  0.91666667  1.0
  O  O3441  1  0.41666667  0.58333333  0.25000000  1.0
  O  O3442  1  0.41666667  0.58333333  0.58333333  1.0
  O  O3443  1  0.41666667  0.58333333  0.91666667  1.0
  O  O3444  1  0.41666667  0.91666667  0.25000000  1.0
  O  O3445  1  0.41666667  0.91666667  0.58333333  1.0
  O  O3446  1  0.41666667  0.91666667  0.91666667  1.0
  O  O3447  1  0.75000000  0.25000000  0.25000000  1.0
  O  O3448  1  0.75000000  0.25000000  0.58333333  1.0
  O  O3449  1  0.75000000  0.25000000  0.91666667  1.0
  O  O3450  1  0.75000000  0.58333333  0.25000000  1.0
  O  O3451  1  0.75000000  0.58333333  0.58333333  1.0
  O  O3452  1  0.75000000  0.58333333  0.91666667  1.0
  O  O3453  1  0.75000000  0.91666667  0.25000000  1.0
  O  O3454  1  0.75000000  0.91666667  0.58333333  1.0
  O  O3455  1  0.75000000  0.91666667  0.91666667  1.0
