# generated using pymatgen
data_Li6La11Sc5Cl32
_symmetry_space_group_name_H-M   'P 1'
_cell_length_a   31.21110000
_cell_length_b   31.21110000
_cell_length_c   31.21110000
_cell_angle_alpha   90.00000000
_cell_angle_beta   90.00000000
_cell_angle_gamma   90.00000000
_symmetry_Int_Tables_number   1
_chemical_formula_structural   Li6La11Sc5Cl32
_chemical_formula_sum   'Li162 La297 Sc135 Cl864'
_cell_volume   30403.75508582
_cell_formula_units_Z   27
loop_
 _symmetry_equiv_pos_site_id
 _symmetry_equiv_pos_as_xyz
  1  'x, y, z'
loop_
 _atom_site_type_symbol
 _atom_site_label
 _atom_site_symmetry_multiplicity
 _atom_site_fract_x
 _atom_site_fract_y
 _atom_site_fract_z
 _atom_site_occupancy
  Li  Li0  1  0.29166667  0.95833333  0.29166667  1
  Li  Li1  1  0.62500000  0.29166667  0.62500000  1
  Li  Li2  1  0.62500000  0.62500000  0.29166667  1
  Li  Li3  1  0.62500000  0.62500000  0.62500000  1
  Li  Li4  1  0.45833333  0.12500000  0.29166667  1
  Li  Li5  1  0.79166667  0.12500000  0.62500000  1
  Li  Li6  1  0.79166667  0.45833333  0.62500000  1
  Li  Li7  1  0.79166667  0.79166667  0.95833333  1
  Li  Li8  1  0.12500000  0.29166667  0.45833333  1
  Li  Li9  1  0.12500000  0.95833333  0.45833333  1
  Li  Li10  1  0.45833333  0.62500000  0.45833333  1
  Li  Li11  1  0.45833333  0.95833333  0.45833333  1
  Li  Li12  1  0.79166667  0.29166667  0.12500000  1
  Li  Li13  1  0.29166667  0.12500000  0.12500000  1
  Li  Li14  1  0.95833333  0.12500000  0.45833333  1
  Li  Li15  1  0.95833333  0.12500000  0.79166667  1
  Li  Li16  1  0.04166667  0.70833333  0.70833333  1
  Li  Li17  1  0.37500000  0.37500000  0.70833333  1
  Li  Li18  1  0.37500000  0.70833333  0.70833333  1
  Li  Li19  1  0.70833333  0.04166667  0.04166667  1
  Li  Li20  1  0.20833333  0.87500000  0.04166667  1
  Li  Li21  1  0.20833333  0.87500000  0.70833333  1
  Li  Li22  1  0.54166667  0.20833333  0.70833333  1
  Li  Li23  1  0.87500000  0.20833333  0.37500000  1
  Li  Li24  1  0.87500000  0.20833333  0.70833333  1
  Li  Li25  1  0.20833333  0.37500000  0.87500000  1
  Li  Li26  1  0.87500000  0.37500000  0.20833333  1
  Li  Li27  1  0.04166667  0.20833333  0.87500000  1
  Li  Li28  1  0.04166667  0.54166667  0.87500000  1
  Li  Li29  1  0.70833333  0.54166667  0.54166667  1
  La  La30  1  0.16666667  0.16666667  0.16666667  1
  Sc  Sc31  1  0.16666667  0.16666667  0.50000000  1
  La  La32  1  0.16666667  0.16666667  0.83333333  1
  La  La33  1  0.16666667  0.50000000  0.16666667  1
  La  La34  1  0.16666667  0.50000000  0.50000000  1
  La  La35  1  0.16666667  0.50000000  0.83333333  1
  La  La36  1  0.16666667  0.83333333  0.16666667  1
  La  La37  1  0.16666667  0.83333333  0.50000000  1
  La  La38  1  0.16666667  0.83333333  0.83333333  1
  Sc  Sc39  1  0.50000000  0.16666667  0.16666667  1
  La  La40  1  0.50000000  0.16666667  0.50000000  1
  La  La41  1  0.50000000  0.16666667  0.83333333  1
  La  La42  1  0.50000000  0.50000000  0.16666667  1
  La  La43  1  0.50000000  0.50000000  0.50000000  1
  La  La44  1  0.50000000  0.50000000  0.83333333  1
  Sc  Sc45  1  0.50000000  0.83333333  0.16666667  1
  La  La46  1  0.50000000  0.83333333  0.50000000  1
  Sc  Sc47  1  0.50000000  0.83333333  0.83333333  1
  La  La48  1  0.83333333  0.16666667  0.16666667  1
  La  La49  1  0.83333333  0.16666667  0.50000000  1
  La  La50  1  0.83333333  0.16666667  0.83333333  1
  Sc  Sc51  1  0.83333333  0.50000000  0.16666667  1
  La  La52  1  0.83333333  0.50000000  0.50000000  1
  La  La53  1  0.83333333  0.50000000  0.83333333  1
  Sc  Sc54  1  0.83333333  0.83333333  0.16666667  1
  La  La55  1  0.83333333  0.83333333  0.50000000  1
  La  La56  1  0.83333333  0.83333333  0.83333333  1
  Sc  Sc57  1  0.00000000  0.00000000  0.16666667  1
  La  La58  1  0.00000000  0.00000000  0.50000000  1
  La  La59  1  0.00000000  0.00000000  0.83333333  1
  La  La60  1  0.00000000  0.33333333  0.16666667  1
  La  La61  1  0.00000000  0.33333333  0.50000000  1
  La  La62  1  0.00000000  0.33333333  0.83333333  1
  La  La63  1  0.00000000  0.66666667  0.16666667  1
  La  La64  1  0.00000000  0.66666667  0.50000000  1
  La  La65  1  0.00000000  0.66666667  0.83333333  1
  La  La66  1  0.33333333  0.00000000  0.16666667  1
  La  La67  1  0.33333333  0.00000000  0.50000000  1
  La  La68  1  0.33333333  0.00000000  0.83333333  1
  Sc  Sc69  1  0.33333333  0.33333333  0.16666667  1
  La  La70  1  0.33333333  0.33333333  0.50000000  1
  Sc  Sc71  1  0.33333333  0.33333333  0.83333333  1
  La  La72  1  0.33333333  0.66666667  0.16666667  1
  La  La73  1  0.33333333  0.66666667  0.50000000  1
  La  La74  1  0.33333333  0.66666667  0.83333333  1
  Sc  Sc75  1  0.66666667  0.00000000  0.16666667  1
  La  La76  1  0.66666667  0.00000000  0.50000000  1
  La  La77  1  0.66666667  0.00000000  0.83333333  1
  Sc  Sc78  1  0.66666667  0.33333333  0.16666667  1
  La  La79  1  0.66666667  0.33333333  0.50000000  1
  La  La80  1  0.66666667  0.33333333  0.83333333  1
  Sc  Sc81  1  0.66666667  0.66666667  0.16666667  1
  La  La82  1  0.66666667  0.66666667  0.50000000  1
  La  La83  1  0.66666667  0.66666667  0.83333333  1
  Sc  Sc84  1  0.00000000  0.16666667  0.00000000  1
  La  La85  1  0.00000000  0.16666667  0.33333333  1
  La  La86  1  0.00000000  0.16666667  0.66666667  1
  La  La87  1  0.00000000  0.50000000  1.00000000  1
  Sc  Sc88  1  0.00000000  0.50000000  0.33333333  1
  La  La89  1  0.00000000  0.50000000  0.66666667  1
  Sc  Sc90  1  0.00000000  0.83333333  0.00000000  1
  Sc  Sc91  1  0.00000000  0.83333333  0.33333333  1
  Sc  Sc92  1  0.00000000  0.83333333  0.66666667  1
  La  La93  1  0.33333333  0.16666667  1.00000000  1
  La  La94  1  0.33333333  0.16666667  0.33333333  1
  La  La95  1  0.33333333  0.16666667  0.66666667  1
  Sc  Sc96  1  0.33333333  0.50000000  1.00000000  1
  La  La97  1  0.33333333  0.50000000  0.33333333  1
  La  La98  1  0.33333333  0.50000000  0.66666667  1
  Sc  Sc99  1  0.33333333  0.83333333  1.00000000  1
  Sc  Sc100  1  0.33333333  0.83333333  0.33333333  1
  La  La101  1  0.33333333  0.83333333  0.66666667  1
  La  La102  1  0.66666667  0.16666667  0.00000000  1
  La  La103  1  0.66666667  0.16666667  0.33333333  1
  Sc  Sc104  1  0.66666667  0.16666667  0.66666667  1
  La  La105  1  0.66666667  0.50000000  1.00000000  1
  La  La106  1  0.66666667  0.50000000  0.33333333  1
  Sc  Sc107  1  0.66666667  0.50000000  0.66666667  1
  La  La108  1  0.66666667  0.83333333  1.00000000  1
  La  La109  1  0.66666667  0.83333333  0.33333333  1
  La  La110  1  0.66666667  0.83333333  0.66666667  1
  La  La111  1  0.16666667  0.00000000  0.00000000  1
  La  La112  1  0.16666667  0.00000000  0.33333333  1
  La  La113  1  0.16666667  0.00000000  0.66666667  1
  La  La114  1  0.16666667  0.33333333  0.00000000  1
  La  La115  1  0.16666667  0.33333333  0.33333333  1
  La  La116  1  0.16666667  0.33333333  0.66666667  1
  La  La117  1  0.16666667  0.66666667  0.00000000  1
  Sc  Sc118  1  0.16666667  0.66666667  0.33333333  1
  La  La119  1  0.16666667  0.66666667  0.66666667  1
  La  La120  1  0.50000000  0.00000000  1.00000000  1
  La  La121  1  0.50000000  0.00000000  0.33333333  1
  La  La122  1  0.50000000  0.00000000  0.66666667  1
  Sc  Sc123  1  0.50000000  0.33333333  1.00000000  1
  La  La124  1  0.50000000  0.33333333  0.33333333  1
  La  La125  1  0.50000000  0.33333333  0.66666667  1
  La  La126  1  0.50000000  0.66666667  0.00000000  1
  Sc  Sc127  1  0.50000000  0.66666667  0.33333333  1
  La  La128  1  0.50000000  0.66666667  0.66666667  1
  La  La129  1  0.83333333  0.00000000  1.00000000  1
  Sc  Sc130  1  0.83333333  0.00000000  0.33333333  1
  La  La131  1  0.83333333  0.00000000  0.66666667  1
  La  La132  1  0.83333333  0.33333333  1.00000000  1
  La  La133  1  0.83333333  0.33333333  0.33333333  1
  La  La134  1  0.83333333  0.33333333  0.66666667  1
  La  La135  1  0.83333333  0.66666667  1.00000000  1
  La  La136  1  0.83333333  0.66666667  0.33333333  1
  La  La137  1  0.83333333  0.66666667  0.66666667  1
  La  La138  1  0.16666667  0.08333333  0.08333333  1
  Sc  Sc139  1  0.16666667  0.08333333  0.41666667  1
  La  La140  1  0.16666667  0.08333333  0.75000000  1
  La  La141  1  0.16666667  0.41666667  0.08333333  1
  La  La142  1  0.16666667  0.41666667  0.41666667  1
  La  La143  1  0.16666667  0.41666667  0.75000000  1
  La  La144  1  0.16666667  0.75000000  0.08333333  1
  Sc  Sc145  1  0.16666667  0.75000000  0.41666667  1
  La  La146  1  0.16666667  0.75000000  0.75000000  1
  La  La147  1  0.50000000  0.08333333  0.08333333  1
  Sc  Sc148  1  0.50000000  0.08333333  0.41666667  1
  La  La149  1  0.50000000  0.08333333  0.75000000  1
  La  La150  1  0.50000000  0.41666667  0.08333333  1
  Sc  Sc151  1  0.50000000  0.41666667  0.41666667  1
  La  La152  1  0.50000000  0.41666667  0.75000000  1
  La  La153  1  0.50000000  0.75000000  0.08333333  1
  La  La154  1  0.50000000  0.75000000  0.41666667  1
  Sc  Sc155  1  0.50000000  0.75000000  0.75000000  1
  La  La156  1  0.83333333  0.08333333  0.08333333  1
  Sc  Sc157  1  0.83333333  0.08333333  0.41666667  1
  La  La158  1  0.83333333  0.08333333  0.75000000  1
  Sc  Sc159  1  0.83333333  0.41666667  0.08333333  1
  Sc  Sc160  1  0.83333333  0.41666667  0.41666667  1
  La  La161  1  0.83333333  0.41666667  0.75000000  1
  La  La162  1  0.83333333  0.75000000  0.08333333  1
  Sc  Sc163  1  0.83333333  0.75000000  0.41666667  1
  Sc  Sc164  1  0.83333333  0.75000000  0.75000000  1
  La  La165  1  0.00000000  0.25000000  0.08333333  1
  La  La166  1  0.00000000  0.25000000  0.41666667  1
  La  La167  1  0.00000000  0.25000000  0.75000000  1
  La  La168  1  0.00000000  0.58333333  0.08333333  1
  La  La169  1  0.00000000  0.58333333  0.41666667  1
  La  La170  1  0.00000000  0.58333333  0.75000000  1
  Sc  Sc171  1  0.00000000  0.91666667  0.08333333  1
  La  La172  1  0.00000000  0.91666667  0.41666667  1
  La  La173  1  0.00000000  0.91666667  0.75000000  1
  La  La174  1  0.33333333  0.25000000  0.08333333  1
  La  La175  1  0.33333333  0.25000000  0.41666667  1
  La  La176  1  0.33333333  0.25000000  0.75000000  1
  La  La177  1  0.33333333  0.58333333  0.08333333  1
  La  La178  1  0.33333333  0.58333333  0.41666667  1
  La  La179  1  0.33333333  0.58333333  0.75000000  1
  La  La180  1  0.33333333  0.91666667  0.08333333  1
  La  La181  1  0.33333333  0.91666667  0.41666667  1
  La  La182  1  0.33333333  0.91666667  0.75000000  1
  Sc  Sc183  1  0.66666667  0.25000000  0.08333333  1
  Sc  Sc184  1  0.66666667  0.25000000  0.41666667  1
  Sc  Sc185  1  0.66666667  0.25000000  0.75000000  1
  La  La186  1  0.66666667  0.58333333  0.08333333  1
  La  La187  1  0.66666667  0.58333333  0.41666667  1
  Sc  Sc188  1  0.66666667  0.58333333  0.75000000  1
  La  La189  1  0.66666667  0.91666667  0.08333333  1
  La  La190  1  0.66666667  0.91666667  0.41666667  1
  La  La191  1  0.66666667  0.91666667  0.75000000  1
  La  La192  1  0.00000000  0.08333333  0.25000000  1
  La  La193  1  0.00000000  0.08333333  0.58333333  1
  La  La194  1  0.00000000  0.08333333  0.91666667  1
  La  La195  1  0.00000000  0.41666667  0.25000000  1
  Sc  Sc196  1  0.00000000  0.41666667  0.58333333  1
  Sc  Sc197  1  0.00000000  0.41666667  0.91666667  1
  La  La198  1  0.00000000  0.75000000  0.25000000  1
  Sc  Sc199  1  0.00000000  0.75000000  0.58333333  1
  La  La200  1  0.00000000  0.75000000  0.91666667  1
  La  La201  1  0.33333333  0.08333333  0.25000000  1
  Sc  Sc202  1  0.33333333  0.08333333  0.58333333  1
  Sc  Sc203  1  0.33333333  0.08333333  0.91666667  1
  La  La204  1  0.33333333  0.41666667  0.25000000  1
  Sc  Sc205  1  0.33333333  0.41666667  0.58333333  1
  La  La206  1  0.33333333  0.41666667  0.91666667  1
  Sc  Sc207  1  0.33333333  0.75000000  0.25000000  1
  Sc  Sc208  1  0.33333333  0.75000000  0.58333333  1
  La  La209  1  0.33333333  0.75000000  0.91666667  1
  Sc  Sc210  1  0.66666667  0.08333333  0.25000000  1
  La  La211  1  0.66666667  0.08333333  0.58333333  1
  La  La212  1  0.66666667  0.08333333  0.91666667  1
  La  La213  1  0.66666667  0.41666667  0.25000000  1
  Sc  Sc214  1  0.66666667  0.41666667  0.58333333  1
  La  La215  1  0.66666667  0.41666667  0.91666667  1
  La  La216  1  0.66666667  0.75000000  0.25000000  1
  La  La217  1  0.66666667  0.75000000  0.58333333  1
  Sc  Sc218  1  0.66666667  0.75000000  0.91666667  1
  La  La219  1  0.16666667  0.25000000  0.25000000  1
  La  La220  1  0.16666667  0.25000000  0.58333333  1
  La  La221  1  0.16666667  0.25000000  0.91666667  1
  La  La222  1  0.16666667  0.58333333  0.25000000  1
  Sc  Sc223  1  0.16666667  0.58333333  0.58333333  1
  La  La224  1  0.16666667  0.58333333  0.91666667  1
  Sc  Sc225  1  0.16666667  0.91666667  0.25000000  1
  La  La226  1  0.16666667  0.91666667  0.58333333  1
  Sc  Sc227  1  0.16666667  0.91666667  0.91666667  1
  Sc  Sc228  1  0.50000000  0.25000000  0.25000000  1
  La  La229  1  0.50000000  0.25000000  0.58333333  1
  La  La230  1  0.50000000  0.25000000  0.91666667  1
  Sc  Sc231  1  0.50000000  0.58333333  0.25000000  1
  La  La232  1  0.50000000  0.58333333  0.58333333  1
  La  La233  1  0.50000000  0.58333333  0.91666667  1
  La  La234  1  0.50000000  0.91666667  0.25000000  1
  Sc  Sc235  1  0.50000000  0.91666667  0.58333333  1
  La  La236  1  0.50000000  0.91666667  0.91666667  1
  La  La237  1  0.83333333  0.25000000  0.25000000  1
  La  La238  1  0.83333333  0.25000000  0.58333333  1
  La  La239  1  0.83333333  0.25000000  0.91666667  1
  Sc  Sc240  1  0.83333333  0.58333333  0.25000000  1
  La  La241  1  0.83333333  0.58333333  0.58333333  1
  La  La242  1  0.83333333  0.58333333  0.91666667  1
  La  La243  1  0.83333333  0.91666667  0.25000000  1
  La  La244  1  0.83333333  0.91666667  0.58333333  1
  La  La245  1  0.83333333  0.91666667  0.91666667  1
  La  La246  1  0.08333333  0.16666667  0.08333333  1
  La  La247  1  0.08333333  0.16666667  0.41666667  1
  La  La248  1  0.08333333  0.16666667  0.75000000  1
  La  La249  1  0.08333333  0.50000000  0.08333333  1
  Sc  Sc250  1  0.08333333  0.50000000  0.41666667  1
  Sc  Sc251  1  0.08333333  0.50000000  0.75000000  1
  La  La252  1  0.08333333  0.83333333  0.08333333  1
  La  La253  1  0.08333333  0.83333333  0.41666667  1
  La  La254  1  0.08333333  0.83333333  0.75000000  1
  Sc  Sc255  1  0.41666667  0.16666667  0.08333333  1
  Sc  Sc256  1  0.41666667  0.16666667  0.41666667  1
  Sc  Sc257  1  0.41666667  0.16666667  0.75000000  1
  Sc  Sc258  1  0.41666667  0.50000000  0.08333333  1
  Sc  Sc259  1  0.41666667  0.50000000  0.41666667  1
  La  La260  1  0.41666667  0.50000000  0.75000000  1
  La  La261  1  0.41666667  0.83333333  0.08333333  1
  La  La262  1  0.41666667  0.83333333  0.41666667  1
  La  La263  1  0.41666667  0.83333333  0.75000000  1
  La  La264  1  0.75000000  0.16666667  0.08333333  1
  La  La265  1  0.75000000  0.16666667  0.41666667  1
  Sc  Sc266  1  0.75000000  0.16666667  0.75000000  1
  La  La267  1  0.75000000  0.50000000  0.08333333  1
  La  La268  1  0.75000000  0.50000000  0.41666667  1
  La  La269  1  0.75000000  0.50000000  0.75000000  1
  Sc  Sc270  1  0.75000000  0.83333333  0.08333333  1
  Sc  Sc271  1  0.75000000  0.83333333  0.41666667  1
  La  La272  1  0.75000000  0.83333333  0.75000000  1
  La  La273  1  0.25000000  0.00000000  0.08333333  1
  La  La274  1  0.25000000  0.00000000  0.41666667  1
  La  La275  1  0.25000000  0.00000000  0.75000000  1
  La  La276  1  0.25000000  0.33333333  0.08333333  1
  La  La277  1  0.25000000  0.33333333  0.41666667  1
  La  La278  1  0.25000000  0.33333333  0.75000000  1
  La  La279  1  0.25000000  0.66666667  0.08333333  1
  La  La280  1  0.25000000  0.66666667  0.41666667  1
  La  La281  1  0.25000000  0.66666667  0.75000000  1
  La  La282  1  0.58333333  0.00000000  0.08333333  1
  La  La283  1  0.58333333  0.00000000  0.41666667  1
  La  La284  1  0.58333333  0.00000000  0.75000000  1
  La  La285  1  0.58333333  0.33333333  0.08333333  1
  Sc  Sc286  1  0.58333333  0.33333333  0.41666667  1
  Sc  Sc287  1  0.58333333  0.33333333  0.75000000  1
  La  La288  1  0.58333333  0.66666667  0.08333333  1
  La  La289  1  0.58333333  0.66666667  0.41666667  1
  Sc  Sc290  1  0.58333333  0.66666667  0.75000000  1
  Sc  Sc291  1  0.91666667  0.00000000  0.08333333  1
  Sc  Sc292  1  0.91666667  0.00000000  0.41666667  1
  La  La293  1  0.91666667  0.00000000  0.75000000  1
  La  La294  1  0.91666667  0.33333333  0.08333333  1
  Sc  Sc295  1  0.91666667  0.33333333  0.41666667  1
  La  La296  1  0.91666667  0.33333333  0.75000000  1
  La  La297  1  0.91666667  0.66666667  0.08333333  1
  Sc  Sc298  1  0.91666667  0.66666667  0.41666667  1
  La  La299  1  0.91666667  0.66666667  0.75000000  1
  La  La300  1  0.25000000  0.16666667  0.25000000  1
  Sc  Sc301  1  0.25000000  0.16666667  0.58333333  1
  La  La302  1  0.25000000  0.16666667  0.91666667  1
  La  La303  1  0.25000000  0.50000000  0.25000000  1
  Sc  Sc304  1  0.25000000  0.50000000  0.58333333  1
  La  La305  1  0.25000000  0.50000000  0.91666667  1
  La  La306  1  0.25000000  0.83333333  0.25000000  1
  La  La307  1  0.25000000  0.83333333  0.58333333  1
  La  La308  1  0.25000000  0.83333333  0.91666667  1
  La  La309  1  0.58333333  0.16666667  0.25000000  1
  Sc  Sc310  1  0.58333333  0.16666667  0.58333333  1
  La  La311  1  0.58333333  0.16666667  0.91666667  1
  La  La312  1  0.58333333  0.50000000  0.25000000  1
  Sc  Sc313  1  0.58333333  0.50000000  0.58333333  1
  La  La314  1  0.58333333  0.50000000  0.91666667  1
  La  La315  1  0.58333333  0.83333333  0.25000000  1
  La  La316  1  0.58333333  0.83333333  0.58333333  1
  La  La317  1  0.58333333  0.83333333  0.91666667  1
  La  La318  1  0.91666667  0.16666667  0.25000000  1
  Sc  Sc319  1  0.91666667  0.16666667  0.58333333  1
  La  La320  1  0.91666667  0.16666667  0.91666667  1
  Sc  Sc321  1  0.91666667  0.50000000  0.25000000  1
  La  La322  1  0.91666667  0.50000000  0.58333333  1
  La  La323  1  0.91666667  0.50000000  0.91666667  1
  La  La324  1  0.91666667  0.83333333  0.25000000  1
  La  La325  1  0.91666667  0.83333333  0.58333333  1
  La  La326  1  0.91666667  0.83333333  0.91666667  1
  Sc  Sc327  1  0.08333333  0.00000000  0.25000000  1
  La  La328  1  0.08333333  0.00000000  0.58333333  1
  La  La329  1  0.08333333  0.00000000  0.91666667  1
  La  La330  1  0.08333333  0.33333333  0.25000000  1
  Sc  Sc331  1  0.08333333  0.33333333  0.58333333  1
  La  La332  1  0.08333333  0.33333333  0.91666667  1
  La  La333  1  0.08333333  0.66666667  0.25000000  1
  La  La334  1  0.08333333  0.66666667  0.58333333  1
  La  La335  1  0.08333333  0.66666667  0.91666667  1
  La  La336  1  0.41666667  0.00000000  0.25000000  1
  La  La337  1  0.41666667  0.00000000  0.58333333  1
  Sc  Sc338  1  0.41666667  0.00000000  0.91666667  1
  La  La339  1  0.41666667  0.33333333  0.25000000  1
  La  La340  1  0.41666667  0.33333333  0.58333333  1
  Sc  Sc341  1  0.41666667  0.33333333  0.91666667  1
  Sc  Sc342  1  0.41666667  0.66666667  0.25000000  1
  La  La343  1  0.41666667  0.66666667  0.58333333  1
  La  La344  1  0.41666667  0.66666667  0.91666667  1
  Sc  Sc345  1  0.75000000  0.00000000  0.25000000  1
  La  La346  1  0.75000000  0.00000000  0.58333333  1
  Sc  Sc347  1  0.75000000  0.00000000  0.91666667  1
  La  La348  1  0.75000000  0.33333333  0.25000000  1
  La  La349  1  0.75000000  0.33333333  0.58333333  1
  La  La350  1  0.75000000  0.33333333  0.91666667  1
  Sc  Sc351  1  0.75000000  0.66666667  0.25000000  1
  La  La352  1  0.75000000  0.66666667  0.58333333  1
  La  La353  1  0.75000000  0.66666667  0.91666667  1
  La  La354  1  0.08333333  0.08333333  0.16666667  1
  Sc  Sc355  1  0.08333333  0.08333333  0.50000000  1
  Sc  Sc356  1  0.08333333  0.08333333  0.83333333  1
  La  La357  1  0.08333333  0.41666667  0.16666667  1
  La  La358  1  0.08333333  0.41666667  0.50000000  1
  Sc  Sc359  1  0.08333333  0.41666667  0.83333333  1
  La  La360  1  0.08333333  0.75000000  0.16666667  1
  Sc  Sc361  1  0.08333333  0.75000000  0.50000000  1
  La  La362  1  0.08333333  0.75000000  0.83333333  1
  Sc  Sc363  1  0.41666667  0.08333333  0.16666667  1
  Sc  Sc364  1  0.41666667  0.08333333  0.50000000  1
  Sc  Sc365  1  0.41666667  0.08333333  0.83333333  1
  Sc  Sc366  1  0.41666667  0.41666667  0.16666667  1
  Sc  Sc367  1  0.41666667  0.41666667  0.50000000  1
  La  La368  1  0.41666667  0.41666667  0.83333333  1
  Sc  Sc369  1  0.41666667  0.75000000  0.16666667  1
  Sc  Sc370  1  0.41666667  0.75000000  0.50000000  1
  Sc  Sc371  1  0.41666667  0.75000000  0.83333333  1
  La  La372  1  0.75000000  0.08333333  0.16666667  1
  La  La373  1  0.75000000  0.08333333  0.50000000  1
  La  La374  1  0.75000000  0.08333333  0.83333333  1
  La  La375  1  0.75000000  0.41666667  0.16666667  1
  La  La376  1  0.75000000  0.41666667  0.50000000  1
  Sc  Sc377  1  0.75000000  0.41666667  0.83333333  1
  La  La378  1  0.75000000  0.75000000  0.16666667  1
  Sc  Sc379  1  0.75000000  0.75000000  0.50000000  1
  La  La380  1  0.75000000  0.75000000  0.83333333  1
  Sc  Sc381  1  0.25000000  0.25000000  0.16666667  1
  Sc  Sc382  1  0.25000000  0.25000000  0.50000000  1
  Sc  Sc383  1  0.25000000  0.25000000  0.83333333  1
  La  La384  1  0.25000000  0.58333333  0.16666667  1
  La  La385  1  0.25000000  0.58333333  0.50000000  1
  Sc  Sc386  1  0.25000000  0.58333333  0.83333333  1
  La  La387  1  0.25000000  0.91666667  0.16666667  1
  La  La388  1  0.25000000  0.91666667  0.50000000  1
  La  La389  1  0.25000000  0.91666667  0.83333333  1
  La  La390  1  0.58333333  0.25000000  0.16666667  1
  Sc  Sc391  1  0.58333333  0.25000000  0.50000000  1
  La  La392  1  0.58333333  0.25000000  0.83333333  1
  La  La393  1  0.58333333  0.58333333  0.16666667  1
  La  La394  1  0.58333333  0.58333333  0.50000000  1
  La  La395  1  0.58333333  0.58333333  0.83333333  1
  La  La396  1  0.58333333  0.91666667  0.16666667  1
  La  La397  1  0.58333333  0.91666667  0.50000000  1
  Sc  Sc398  1  0.58333333  0.91666667  0.83333333  1
  La  La399  1  0.91666667  0.25000000  0.16666667  1
  Sc  Sc400  1  0.91666667  0.25000000  0.50000000  1
  La  La401  1  0.91666667  0.25000000  0.83333333  1
  Sc  Sc402  1  0.91666667  0.58333333  0.16666667  1
  La  La403  1  0.91666667  0.58333333  0.50000000  1
  La  La404  1  0.91666667  0.58333333  0.83333333  1
  La  La405  1  0.91666667  0.91666667  0.16666667  1
  La  La406  1  0.91666667  0.91666667  0.50000000  1
  La  La407  1  0.91666667  0.91666667  0.83333333  1
  La  La408  1  0.25000000  0.08333333  0.00000000  1
  La  La409  1  0.25000000  0.08333333  0.33333333  1
  La  La410  1  0.25000000  0.08333333  0.66666667  1
  La  La411  1  0.25000000  0.41666667  1.00000000  1
  Sc  Sc412  1  0.25000000  0.41666667  0.33333333  1
  La  La413  1  0.25000000  0.41666667  0.66666667  1
  Sc  Sc414  1  0.25000000  0.75000000  1.00000000  1
  Sc  Sc415  1  0.25000000  0.75000000  0.33333333  1
  La  La416  1  0.25000000  0.75000000  0.66666667  1
  La  La417  1  0.58333333  0.08333333  1.00000000  1
  La  La418  1  0.58333333  0.08333333  0.33333333  1
  Sc  Sc419  1  0.58333333  0.08333333  0.66666667  1
  Sc  Sc420  1  0.58333333  0.41666667  1.00000000  1
  Sc  Sc421  1  0.58333333  0.41666667  0.33333333  1
  Sc  Sc422  1  0.58333333  0.41666667  0.66666667  1
  La  La423  1  0.58333333  0.75000000  1.00000000  1
  Sc  Sc424  1  0.58333333  0.75000000  0.33333333  1
  La  La425  1  0.58333333  0.75000000  0.66666667  1
  Sc  Sc426  1  0.91666667  0.08333333  1.00000000  1
  La  La427  1  0.91666667  0.08333333  0.33333333  1
  La  La428  1  0.91666667  0.08333333  0.66666667  1
  La  La429  1  0.91666667  0.41666667  1.00000000  1
  La  La430  1  0.91666667  0.41666667  0.33333333  1
  La  La431  1  0.91666667  0.41666667  0.66666667  1
  Sc  Sc432  1  0.91666667  0.75000000  1.00000000  1
  La  La433  1  0.91666667  0.75000000  0.33333333  1
  La  La434  1  0.91666667  0.75000000  0.66666667  1
  Sc  Sc435  1  0.08333333  0.25000000  0.00000000  1
  La  La436  1  0.08333333  0.25000000  0.33333333  1
  Sc  Sc437  1  0.08333333  0.25000000  0.66666667  1
  Sc  Sc438  1  0.08333333  0.58333333  1.00000000  1
  Sc  Sc439  1  0.08333333  0.58333333  0.33333333  1
  La  La440  1  0.08333333  0.58333333  0.66666667  1
  Sc  Sc441  1  0.08333333  0.91666667  0.00000000  1
  La  La442  1  0.08333333  0.91666667  0.33333333  1
  Sc  Sc443  1  0.08333333  0.91666667  0.66666667  1
  Sc  Sc444  1  0.41666667  0.25000000  1.00000000  1
  Sc  Sc445  1  0.41666667  0.25000000  0.33333333  1
  Sc  Sc446  1  0.41666667  0.25000000  0.66666667  1
  La  La447  1  0.41666667  0.58333333  1.00000000  1
  La  La448  1  0.41666667  0.58333333  0.33333333  1
  La  La449  1  0.41666667  0.58333333  0.66666667  1
  La  La450  1  0.41666667  0.91666667  1.00000000  1
  Sc  Sc451  1  0.41666667  0.91666667  0.33333333  1
  La  La452  1  0.41666667  0.91666667  0.66666667  1
  La  La453  1  0.75000000  0.25000000  1.00000000  1
  La  La454  1  0.75000000  0.25000000  0.33333333  1
  Sc  Sc455  1  0.75000000  0.25000000  0.66666667  1
  Sc  Sc456  1  0.75000000  0.58333333  1.00000000  1
  La  La457  1  0.75000000  0.58333333  0.33333333  1
  La  La458  1  0.75000000  0.58333333  0.66666667  1
  La  La459  1  0.75000000  0.91666667  1.00000000  1
  La  La460  1  0.75000000  0.91666667  0.33333333  1
  Sc  Sc461  1  0.75000000  0.91666667  0.66666667  1
  Li  Li462  1  0.08333333  0.08333333  0.00000000  1
  Li  Li463  1  0.08333333  0.08333333  0.33333333  1
  Li  Li464  1  0.41666667  0.41666667  0.33333333  1
  Li  Li465  1  0.41666667  0.75000000  0.66666667  1
  Li  Li466  1  0.75000000  0.41666667  0.66666667  1
  Li  Li467  1  0.25000000  0.58333333  0.66666667  1
  Li  Li468  1  0.58333333  0.58333333  0.33333333  1
  Li  Li469  1  0.58333333  0.91666667  0.33333333  1
  Li  Li470  1  0.58333333  0.91666667  0.66666667  1
  Li  Li471  1  0.91666667  0.25000000  0.66666667  1
  Li  Li472  1  0.25000000  0.08333333  0.16666667  1
  Li  Li473  1  0.25000000  0.41666667  0.50000000  1
  Li  Li474  1  0.25000000  0.75000000  0.16666667  1
  Li  Li475  1  0.58333333  0.41666667  0.50000000  1
  Li  Li476  1  0.58333333  0.75000000  0.83333333  1
  Li  Li477  1  0.91666667  0.75000000  0.50000000  1
  Li  Li478  1  0.75000000  0.58333333  0.83333333  1
  Li  Li479  1  0.75000000  0.91666667  0.50000000  1
  Li  Li480  1  0.08333333  0.00000000  0.75000000  1
  Li  Li481  1  0.08333333  0.33333333  0.08333333  1
  Li  Li482  1  0.75000000  0.66666667  0.75000000  1
  Li  Li483  1  0.25000000  0.50000000  0.41666667  1
  Li  Li484  1  0.25000000  0.83333333  0.75000000  1
  Li  Li485  1  0.58333333  0.50000000  0.41666667  1
  Li  Li486  1  0.91666667  0.16666667  0.75000000  1
  Li  Li487  1  0.91666667  0.50000000  0.75000000  1
  Li  Li488  1  0.91666667  0.83333333  0.75000000  1
  Li  Li489  1  0.25000000  0.00000000  0.91666667  1
  Li  Li490  1  0.58333333  0.00000000  0.58333333  1
  Li  Li491  1  0.58333333  0.66666667  0.25000000  1
  Li  Li492  1  0.91666667  0.33333333  0.91666667  1
  Li  Li493  1  0.91666667  0.66666667  0.25000000  1
  Li  Li494  1  0.08333333  0.16666667  0.91666667  1
  Li  Li495  1  0.08333333  0.83333333  0.25000000  1
  Li  Li496  1  0.41666667  0.50000000  0.91666667  1
  Li  Li497  1  0.75000000  0.50000000  0.25000000  1
  Li  Li498  1  0.75000000  0.50000000  0.91666667  1
  Li  Li499  1  0.00000000  0.08333333  0.08333333  1
  Li  Li500  1  0.00000000  0.08333333  0.41666667  1
  Li  Li501  1  0.00000000  0.41666667  0.41666667  1
  Li  Li502  1  0.00000000  0.41666667  0.75000000  1
  Li  Li503  1  0.33333333  0.08333333  0.41666667  1
  Li  Li504  1  0.33333333  0.41666667  0.75000000  1
  Li  Li505  1  0.33333333  0.75000000  0.08333333  1
  Li  Li506  1  0.33333333  0.75000000  0.41666667  1
  Li  Li507  1  0.16666667  0.25000000  0.08333333  1
  Li  Li508  1  0.16666667  0.91666667  0.41666667  1
  Li  Li509  1  0.50000000  0.25000000  0.75000000  1
  Li  Li510  1  0.83333333  0.91666667  0.08333333  1
  Li  Li511  1  0.16666667  0.08333333  0.25000000  1
  Li  Li512  1  0.16666667  0.41666667  0.25000000  1
  Li  Li513  1  0.16666667  0.41666667  0.58333333  1
  Li  Li514  1  0.16666667  0.41666667  0.91666667  1
  Li  Li515  1  0.16666667  0.75000000  0.58333333  1
  Li  Li516  1  0.83333333  0.08333333  0.58333333  1
  Li  Li517  1  0.83333333  0.41666667  0.58333333  1
  Li  Li518  1  0.00000000  0.58333333  0.91666667  1
  Li  Li519  1  0.00000000  0.91666667  0.25000000  1
  Li  Li520  1  0.00000000  0.91666667  0.58333333  1
  Li  Li521  1  0.33333333  0.25000000  0.25000000  1
  Li  Li522  1  0.66666667  0.00000000  0.66666667  1
  Li  Li523  1  0.66666667  0.33333333  1.00000000  1
  Li  Li524  1  0.66666667  0.33333333  0.33333333  1
  Li  Li525  1  0.66666667  0.66666667  0.33333333  1
  Li  Li526  1  0.66666667  0.66666667  0.66666667  1
  Li  Li527  1  0.16666667  0.16666667  0.33333333  1
  Li  Li528  1  0.16666667  0.83333333  1.00000000  1
  Li  Li529  1  0.50000000  0.16666667  1.00000000  1
  Li  Li530  1  0.50000000  0.16666667  0.33333333  1
  Li  Li531  1  0.50000000  0.83333333  0.33333333  1
  Li  Li532  1  0.50000000  0.83333333  0.66666667  1
  Li  Li533  1  0.83333333  0.16666667  0.33333333  1
  Li  Li534  1  0.83333333  0.50000000  1.00000000  1
  Li  Li535  1  0.83333333  0.50000000  0.33333333  1
  Li  Li536  1  0.83333333  0.50000000  0.66666667  1
  Li  Li537  1  0.83333333  0.83333333  0.33333333  1
  Li  Li538  1  0.83333333  0.83333333  0.66666667  1
  Li  Li539  1  0.16666667  0.00000000  0.16666667  1
  Li  Li540  1  0.50000000  0.00000000  0.50000000  1
  Li  Li541  1  0.50000000  0.33333333  0.16666667  1
  Li  Li542  1  0.50000000  0.33333333  0.83333333  1
  Li  Li543  1  0.83333333  0.33333333  0.16666667  1
  Li  Li544  1  0.83333333  0.66666667  0.16666667  1
  Li  Li545  1  0.83333333  0.66666667  0.50000000  1
  Li  Li546  1  0.00000000  0.16666667  0.83333333  1
  Li  Li547  1  0.00000000  0.50000000  0.16666667  1
  Li  Li548  1  0.00000000  0.50000000  0.83333333  1
  Li  Li549  1  0.00000000  0.83333333  0.16666667  1
  Li  Li550  1  0.33333333  0.50000000  0.16666667  1
  Li  Li551  1  0.33333333  0.50000000  0.83333333  1
  Li  Li552  1  0.33333333  0.83333333  0.50000000  1
  Li  Li553  1  0.33333333  0.83333333  0.83333333  1
  Li  Li554  1  0.66666667  0.50000000  0.83333333  1
  Li  Li555  1  0.45833333  0.54166667  0.04166667  1
  Li  Li556  1  0.45833333  0.87500000  0.37500000  1
  Li  Li557  1  0.29166667  0.04166667  0.70833333  1
  Li  Li558  1  0.95833333  0.70833333  0.37500000  1
  Li  Li559  1  0.95833333  0.70833333  0.70833333  1
  Li  Li560  1  0.20833333  0.29166667  0.87500000  1
  Li  Li561  1  0.04166667  0.79166667  0.87500000  1
  Li  Li562  1  0.87500000  0.12500000  0.04166667  1
  Li  Li563  1  0.37500000  0.54166667  0.95833333  1
  Li  Li564  1  0.37500000  0.70833333  0.29166667  1
  Li  Li565  1  0.70833333  0.87500000  0.12500000  1
  Li  Li566  1  0.54166667  0.04166667  0.12500000  1
  Li  Li567  1  0.54166667  0.37500000  0.45833333  1
  Li  Li568  1  0.20833333  0.79166667  0.54166667  1
  Li  Li569  1  0.70833333  0.95833333  0.87500000  1
  Li  Li570  1  0.54166667  0.62500000  0.70833333  1
  Li  Li571  1  0.29166667  0.04166667  0.87500000  1
  Li  Li572  1  0.79166667  0.70833333  0.37500000  1
  Li  Li573  1  0.54166667  0.79166667  0.45833333  1
  Li  Li574  1  0.04166667  0.29166667  0.79166667  1
  Li  Li575  1  0.54166667  0.62500000  0.62500000  1
  Li  Li576  1  0.95833333  0.37500000  0.45833333  1
  Li  Li577  1  0.29166667  0.54166667  0.62500000  1
  Li  Li578  1  0.62500000  0.20833333  0.95833333  1
  Li  Li579  1  0.95833333  0.20833333  0.62500000  1
  Li  Li580  1  0.12500000  0.04166667  0.62500000  1
  Li  Li581  1  0.45833333  0.12500000  0.70833333  1
  Li  Li582  1  0.62500000  0.12500000  0.54166667  1
  Li  Li583  1  0.29166667  0.29166667  0.87500000  1
  Li  Li584  1  0.29166667  0.12500000  0.37500000  1
  Li  Li585  1  0.62500000  0.12500000  0.04166667  1
  Li  Li586  1  0.62500000  0.45833333  0.70833333  1
  Li  Li587  1  0.12500000  0.95833333  0.04166667  1
  Li  Li588  1  0.29166667  0.87500000  0.79166667  1
  Li  Li589  1  0.29166667  0.70833333  0.62500000  1
  Li  Li590  1  0.95833333  0.37500000  0.95833333  1
  Li  Li591  1  0.45833333  0.20833333  0.29166667  1
  Li  Li592  1  0.54166667  0.12500000  0.29166667  1
  Li  Li593  1  0.37500000  0.95833333  0.29166667  1
  Cl  Cl594  1  0.25000000  0.25000000  0.25000000  1
  Cl  Cl595  1  0.25000000  0.25000000  0.58333333  1
  Cl  Cl596  1  0.25000000  0.25000000  0.91666667  1
  Cl  Cl597  1  0.25000000  0.58333333  0.25000000  1
  Cl  Cl598  1  0.25000000  0.58333333  0.58333333  1
  Cl  Cl599  1  0.25000000  0.58333333  0.91666667  1
  Cl  Cl600  1  0.25000000  0.91666667  0.25000000  1
  Cl  Cl601  1  0.25000000  0.91666667  0.58333333  1
  Cl  Cl602  1  0.25000000  0.91666667  0.91666667  1
  Cl  Cl603  1  0.58333333  0.25000000  0.25000000  1
  Cl  Cl604  1  0.58333333  0.25000000  0.58333333  1
  Cl  Cl605  1  0.58333333  0.25000000  0.91666667  1
  Cl  Cl606  1  0.58333333  0.58333333  0.25000000  1
  Cl  Cl607  1  0.58333333  0.58333333  0.58333333  1
  Cl  Cl608  1  0.58333333  0.58333333  0.91666667  1
  Cl  Cl609  1  0.58333333  0.91666667  0.25000000  1
  Cl  Cl610  1  0.58333333  0.91666667  0.58333333  1
  Cl  Cl611  1  0.58333333  0.91666667  0.91666667  1
  Cl  Cl612  1  0.91666667  0.25000000  0.25000000  1
  Cl  Cl613  1  0.91666667  0.25000000  0.58333333  1
  Cl  Cl614  1  0.91666667  0.25000000  0.91666667  1
  Cl  Cl615  1  0.91666667  0.58333333  0.25000000  1
  Cl  Cl616  1  0.91666667  0.58333333  0.58333333  1
  Cl  Cl617  1  0.91666667  0.58333333  0.91666667  1
  Cl  Cl618  1  0.91666667  0.91666667  0.25000000  1
  Cl  Cl619  1  0.91666667  0.91666667  0.58333333  1
  Cl  Cl620  1  0.91666667  0.91666667  0.91666667  1
  Cl  Cl621  1  0.08333333  0.08333333  0.25000000  1
  Cl  Cl622  1  0.08333333  0.08333333  0.58333333  1
  Cl  Cl623  1  0.08333333  0.08333333  0.91666667  1
  Cl  Cl624  1  0.08333333  0.41666667  0.25000000  1
  Cl  Cl625  1  0.08333333  0.41666667  0.58333333  1
  Cl  Cl626  1  0.08333333  0.41666667  0.91666667  1
  Cl  Cl627  1  0.08333333  0.75000000  0.25000000  1
  Cl  Cl628  1  0.08333333  0.75000000  0.58333333  1
  Cl  Cl629  1  0.08333333  0.75000000  0.91666667  1
  Cl  Cl630  1  0.41666667  0.08333333  0.25000000  1
  Cl  Cl631  1  0.41666667  0.08333333  0.58333333  1
  Cl  Cl632  1  0.41666667  0.08333333  0.91666667  1
  Cl  Cl633  1  0.41666667  0.41666667  0.25000000  1
  Cl  Cl634  1  0.41666667  0.41666667  0.58333333  1
  Cl  Cl635  1  0.41666667  0.41666667  0.91666667  1
  Cl  Cl636  1  0.41666667  0.75000000  0.25000000  1
  Cl  Cl637  1  0.41666667  0.75000000  0.58333333  1
  Cl  Cl638  1  0.41666667  0.75000000  0.91666667  1
  Cl  Cl639  1  0.75000000  0.08333333  0.25000000  1
  Cl  Cl640  1  0.75000000  0.08333333  0.58333333  1
  Cl  Cl641  1  0.75000000  0.08333333  0.91666667  1
  Cl  Cl642  1  0.75000000  0.41666667  0.25000000  1
  Cl  Cl643  1  0.75000000  0.41666667  0.58333333  1
  Cl  Cl644  1  0.75000000  0.41666667  0.91666667  1
  Cl  Cl645  1  0.75000000  0.75000000  0.25000000  1
  Cl  Cl646  1  0.75000000  0.75000000  0.58333333  1
  Cl  Cl647  1  0.75000000  0.75000000  0.91666667  1
  Cl  Cl648  1  0.08333333  0.25000000  0.08333333  1
  Cl  Cl649  1  0.08333333  0.25000000  0.41666667  1
  Cl  Cl650  1  0.08333333  0.25000000  0.75000000  1
  Cl  Cl651  1  0.08333333  0.58333333  0.08333333  1
  Cl  Cl652  1  0.08333333  0.58333333  0.41666667  1
  Cl  Cl653  1  0.08333333  0.58333333  0.75000000  1
  Cl  Cl654  1  0.08333333  0.91666667  0.08333333  1
  Cl  Cl655  1  0.08333333  0.91666667  0.41666667  1
  Cl  Cl656  1  0.08333333  0.91666667  0.75000000  1
  Cl  Cl657  1  0.41666667  0.25000000  0.08333333  1
  Cl  Cl658  1  0.41666667  0.25000000  0.41666667  1
  Cl  Cl659  1  0.41666667  0.25000000  0.75000000  1
  Cl  Cl660  1  0.41666667  0.58333333  0.08333333  1
  Cl  Cl661  1  0.41666667  0.58333333  0.41666667  1
  Cl  Cl662  1  0.41666667  0.58333333  0.75000000  1
  Cl  Cl663  1  0.41666667  0.91666667  0.08333333  1
  Cl  Cl664  1  0.41666667  0.91666667  0.41666667  1
  Cl  Cl665  1  0.41666667  0.91666667  0.75000000  1
  Cl  Cl666  1  0.75000000  0.25000000  0.08333333  1
  Cl  Cl667  1  0.75000000  0.25000000  0.41666667  1
  Cl  Cl668  1  0.75000000  0.25000000  0.75000000  1
  Cl  Cl669  1  0.75000000  0.58333333  0.08333333  1
  Cl  Cl670  1  0.75000000  0.58333333  0.41666667  1
  Cl  Cl671  1  0.75000000  0.58333333  0.75000000  1
  Cl  Cl672  1  0.75000000  0.91666667  0.08333333  1
  Cl  Cl673  1  0.75000000  0.91666667  0.41666667  1
  Cl  Cl674  1  0.75000000  0.91666667  0.75000000  1
  Cl  Cl675  1  0.25000000  0.08333333  0.08333333  1
  Cl  Cl676  1  0.25000000  0.08333333  0.41666667  1
  Cl  Cl677  1  0.25000000  0.08333333  0.75000000  1
  Cl  Cl678  1  0.25000000  0.41666667  0.08333333  1
  Cl  Cl679  1  0.25000000  0.41666667  0.41666667  1
  Cl  Cl680  1  0.25000000  0.41666667  0.75000000  1
  Cl  Cl681  1  0.25000000  0.75000000  0.08333333  1
  Cl  Cl682  1  0.25000000  0.75000000  0.41666667  1
  Cl  Cl683  1  0.25000000  0.75000000  0.75000000  1
  Cl  Cl684  1  0.58333333  0.08333333  0.08333333  1
  Cl  Cl685  1  0.58333333  0.08333333  0.41666667  1
  Cl  Cl686  1  0.58333333  0.08333333  0.75000000  1
  Cl  Cl687  1  0.58333333  0.41666667  0.08333333  1
  Cl  Cl688  1  0.58333333  0.41666667  0.41666667  1
  Cl  Cl689  1  0.58333333  0.41666667  0.75000000  1
  Cl  Cl690  1  0.58333333  0.75000000  0.08333333  1
  Cl  Cl691  1  0.58333333  0.75000000  0.41666667  1
  Cl  Cl692  1  0.58333333  0.75000000  0.75000000  1
  Cl  Cl693  1  0.91666667  0.08333333  0.08333333  1
  Cl  Cl694  1  0.91666667  0.08333333  0.41666667  1
  Cl  Cl695  1  0.91666667  0.08333333  0.75000000  1
  Cl  Cl696  1  0.91666667  0.41666667  0.08333333  1
  Cl  Cl697  1  0.91666667  0.41666667  0.41666667  1
  Cl  Cl698  1  0.91666667  0.41666667  0.75000000  1
  Cl  Cl699  1  0.91666667  0.75000000  0.08333333  1
  Cl  Cl700  1  0.91666667  0.75000000  0.41666667  1
  Cl  Cl701  1  0.91666667  0.75000000  0.75000000  1
  Cl  Cl702  1  0.25000000  0.16666667  0.16666667  1
  Cl  Cl703  1  0.25000000  0.16666667  0.50000000  1
  Cl  Cl704  1  0.25000000  0.16666667  0.83333333  1
  Cl  Cl705  1  0.25000000  0.50000000  0.16666667  1
  Cl  Cl706  1  0.25000000  0.50000000  0.50000000  1
  Cl  Cl707  1  0.25000000  0.50000000  0.83333333  1
  Cl  Cl708  1  0.25000000  0.83333333  0.16666667  1
  Cl  Cl709  1  0.25000000  0.83333333  0.50000000  1
  Cl  Cl710  1  0.25000000  0.83333333  0.83333333  1
  Cl  Cl711  1  0.58333333  0.16666667  0.16666667  1
  Cl  Cl712  1  0.58333333  0.16666667  0.50000000  1
  Cl  Cl713  1  0.58333333  0.16666667  0.83333333  1
  Cl  Cl714  1  0.58333333  0.50000000  0.16666667  1
  Cl  Cl715  1  0.58333333  0.50000000  0.50000000  1
  Cl  Cl716  1  0.58333333  0.50000000  0.83333333  1
  Cl  Cl717  1  0.58333333  0.83333333  0.16666667  1
  Cl  Cl718  1  0.58333333  0.83333333  0.50000000  1
  Cl  Cl719  1  0.58333333  0.83333333  0.83333333  1
  Cl  Cl720  1  0.91666667  0.16666667  0.16666667  1
  Cl  Cl721  1  0.91666667  0.16666667  0.50000000  1
  Cl  Cl722  1  0.91666667  0.16666667  0.83333333  1
  Cl  Cl723  1  0.91666667  0.50000000  0.16666667  1
  Cl  Cl724  1  0.91666667  0.50000000  0.50000000  1
  Cl  Cl725  1  0.91666667  0.50000000  0.83333333  1
  Cl  Cl726  1  0.91666667  0.83333333  0.16666667  1
  Cl  Cl727  1  0.91666667  0.83333333  0.50000000  1
  Cl  Cl728  1  0.91666667  0.83333333  0.83333333  1
  Cl  Cl729  1  0.08333333  0.00000000  0.16666667  1
  Cl  Cl730  1  0.08333333  0.00000000  0.50000000  1
  Cl  Cl731  1  0.08333333  0.00000000  0.83333333  1
  Cl  Cl732  1  0.08333333  0.33333333  0.16666667  1
  Cl  Cl733  1  0.08333333  0.33333333  0.50000000  1
  Cl  Cl734  1  0.08333333  0.33333333  0.83333333  1
  Cl  Cl735  1  0.08333333  0.66666667  0.16666667  1
  Cl  Cl736  1  0.08333333  0.66666667  0.50000000  1
  Cl  Cl737  1  0.08333333  0.66666667  0.83333333  1
  Cl  Cl738  1  0.41666667  0.00000000  0.16666667  1
  Cl  Cl739  1  0.41666667  0.00000000  0.50000000  1
  Cl  Cl740  1  0.41666667  0.00000000  0.83333333  1
  Cl  Cl741  1  0.41666667  0.33333333  0.16666667  1
  Cl  Cl742  1  0.41666667  0.33333333  0.50000000  1
  Cl  Cl743  1  0.41666667  0.33333333  0.83333333  1
  Cl  Cl744  1  0.41666667  0.66666667  0.16666667  1
  Cl  Cl745  1  0.41666667  0.66666667  0.50000000  1
  Cl  Cl746  1  0.41666667  0.66666667  0.83333333  1
  Cl  Cl747  1  0.75000000  0.00000000  0.16666667  1
  Cl  Cl748  1  0.75000000  0.00000000  0.50000000  1
  Cl  Cl749  1  0.75000000  0.00000000  0.83333333  1
  Cl  Cl750  1  0.75000000  0.33333333  0.16666667  1
  Cl  Cl751  1  0.75000000  0.33333333  0.50000000  1
  Cl  Cl752  1  0.75000000  0.33333333  0.83333333  1
  Cl  Cl753  1  0.75000000  0.66666667  0.16666667  1
  Cl  Cl754  1  0.75000000  0.66666667  0.50000000  1
  Cl  Cl755  1  0.75000000  0.66666667  0.83333333  1
  Cl  Cl756  1  0.08333333  0.16666667  0.00000000  1
  Cl  Cl757  1  0.08333333  0.16666667  0.33333333  1
  Cl  Cl758  1  0.08333333  0.16666667  0.66666667  1
  Cl  Cl759  1  0.08333333  0.50000000  0.00000000  1
  Cl  Cl760  1  0.08333333  0.50000000  0.33333333  1
  Cl  Cl761  1  0.08333333  0.50000000  0.66666667  1
  Cl  Cl762  1  0.08333333  0.83333333  1.00000000  1
  Cl  Cl763  1  0.08333333  0.83333333  0.33333333  1
  Cl  Cl764  1  0.08333333  0.83333333  0.66666667  1
  Cl  Cl765  1  0.41666667  0.16666667  0.00000000  1
  Cl  Cl766  1  0.41666667  0.16666667  0.33333333  1
  Cl  Cl767  1  0.41666667  0.16666667  0.66666667  1
  Cl  Cl768  1  0.41666667  0.50000000  1.00000000  1
  Cl  Cl769  1  0.41666667  0.50000000  0.33333333  1
  Cl  Cl770  1  0.41666667  0.50000000  0.66666667  1
  Cl  Cl771  1  0.41666667  0.83333333  1.00000000  1
  Cl  Cl772  1  0.41666667  0.83333333  0.33333333  1
  Cl  Cl773  1  0.41666667  0.83333333  0.66666667  1
  Cl  Cl774  1  0.75000000  0.16666667  1.00000000  1
  Cl  Cl775  1  0.75000000  0.16666667  0.33333333  1
  Cl  Cl776  1  0.75000000  0.16666667  0.66666667  1
  Cl  Cl777  1  0.75000000  0.50000000  1.00000000  1
  Cl  Cl778  1  0.75000000  0.50000000  0.33333333  1
  Cl  Cl779  1  0.75000000  0.50000000  0.66666667  1
  Cl  Cl780  1  0.75000000  0.83333333  1.00000000  1
  Cl  Cl781  1  0.75000000  0.83333333  0.33333333  1
  Cl  Cl782  1  0.75000000  0.83333333  0.66666667  1
  Cl  Cl783  1  0.25000000  0.00000000  1.00000000  1
  Cl  Cl784  1  0.25000000  0.00000000  0.33333333  1
  Cl  Cl785  1  0.25000000  0.00000000  0.66666667  1
  Cl  Cl786  1  0.25000000  0.33333333  0.00000000  1
  Cl  Cl787  1  0.25000000  0.33333333  0.33333333  1
  Cl  Cl788  1  0.25000000  0.33333333  0.66666667  1
  Cl  Cl789  1  0.25000000  0.66666667  1.00000000  1
  Cl  Cl790  1  0.25000000  0.66666667  0.33333333  1
  Cl  Cl791  1  0.25000000  0.66666667  0.66666667  1
  Cl  Cl792  1  0.58333333  0.00000000  0.00000000  1
  Cl  Cl793  1  0.58333333  0.00000000  0.33333333  1
  Cl  Cl794  1  0.58333333  0.00000000  0.66666667  1
  Cl  Cl795  1  0.58333333  0.33333333  1.00000000  1
  Cl  Cl796  1  0.58333333  0.33333333  0.33333333  1
  Cl  Cl797  1  0.58333333  0.33333333  0.66666667  1
  Cl  Cl798  1  0.58333333  0.66666667  1.00000000  1
  Cl  Cl799  1  0.58333333  0.66666667  0.33333333  1
  Cl  Cl800  1  0.58333333  0.66666667  0.66666667  1
  Cl  Cl801  1  0.91666667  0.00000000  1.00000000  1
  Cl  Cl802  1  0.91666667  0.00000000  0.33333333  1
  Cl  Cl803  1  0.91666667  0.00000000  0.66666667  1
  Cl  Cl804  1  0.91666667  0.33333333  1.00000000  1
  Cl  Cl805  1  0.91666667  0.33333333  0.33333333  1
  Cl  Cl806  1  0.91666667  0.33333333  0.66666667  1
  Cl  Cl807  1  0.91666667  0.66666667  1.00000000  1
  Cl  Cl808  1  0.91666667  0.66666667  0.33333333  1
  Cl  Cl809  1  0.91666667  0.66666667  0.66666667  1
  Cl  Cl810  1  0.16666667  0.25000000  0.16666667  1
  Cl  Cl811  1  0.16666667  0.25000000  0.50000000  1
  Cl  Cl812  1  0.16666667  0.25000000  0.83333333  1
  Cl  Cl813  1  0.16666667  0.58333333  0.16666667  1
  Cl  Cl814  1  0.16666667  0.58333333  0.50000000  1
  Cl  Cl815  1  0.16666667  0.58333333  0.83333333  1
  Cl  Cl816  1  0.16666667  0.91666667  0.16666667  1
  Cl  Cl817  1  0.16666667  0.91666667  0.50000000  1
  Cl  Cl818  1  0.16666667  0.91666667  0.83333333  1
  Cl  Cl819  1  0.50000000  0.25000000  0.16666667  1
  Cl  Cl820  1  0.50000000  0.25000000  0.50000000  1
  Cl  Cl821  1  0.50000000  0.25000000  0.83333333  1
  Cl  Cl822  1  0.50000000  0.58333333  0.16666667  1
  Cl  Cl823  1  0.50000000  0.58333333  0.50000000  1
  Cl  Cl824  1  0.50000000  0.58333333  0.83333333  1
  Cl  Cl825  1  0.50000000  0.91666667  0.16666667  1
  Cl  Cl826  1  0.50000000  0.91666667  0.50000000  1
  Cl  Cl827  1  0.50000000  0.91666667  0.83333333  1
  Cl  Cl828  1  0.83333333  0.25000000  0.16666667  1
  Cl  Cl829  1  0.83333333  0.25000000  0.50000000  1
  Cl  Cl830  1  0.83333333  0.25000000  0.83333333  1
  Cl  Cl831  1  0.83333333  0.58333333  0.16666667  1
  Cl  Cl832  1  0.83333333  0.58333333  0.50000000  1
  Cl  Cl833  1  0.83333333  0.58333333  0.83333333  1
  Cl  Cl834  1  0.83333333  0.91666667  0.16666667  1
  Cl  Cl835  1  0.83333333  0.91666667  0.50000000  1
  Cl  Cl836  1  0.83333333  0.91666667  0.83333333  1
  Cl  Cl837  1  0.00000000  0.08333333  0.16666667  1
  Cl  Cl838  1  0.00000000  0.08333333  0.50000000  1
  Cl  Cl839  1  0.00000000  0.08333333  0.83333333  1
  Cl  Cl840  1  0.00000000  0.41666667  0.16666667  1
  Cl  Cl841  1  0.00000000  0.41666667  0.50000000  1
  Cl  Cl842  1  0.00000000  0.41666667  0.83333333  1
  Cl  Cl843  1  0.00000000  0.75000000  0.16666667  1
  Cl  Cl844  1  0.00000000  0.75000000  0.50000000  1
  Cl  Cl845  1  0.00000000  0.75000000  0.83333333  1
  Cl  Cl846  1  0.33333333  0.08333333  0.16666667  1
  Cl  Cl847  1  0.33333333  0.08333333  0.50000000  1
  Cl  Cl848  1  0.33333333  0.08333333  0.83333333  1
  Cl  Cl849  1  0.33333333  0.41666667  0.16666667  1
  Cl  Cl850  1  0.33333333  0.41666667  0.50000000  1
  Cl  Cl851  1  0.33333333  0.41666667  0.83333333  1
  Cl  Cl852  1  0.33333333  0.75000000  0.16666667  1
  Cl  Cl853  1  0.33333333  0.75000000  0.50000000  1
  Cl  Cl854  1  0.33333333  0.75000000  0.83333333  1
  Cl  Cl855  1  0.66666667  0.08333333  0.16666667  1
  Cl  Cl856  1  0.66666667  0.08333333  0.50000000  1
  Cl  Cl857  1  0.66666667  0.08333333  0.83333333  1
  Cl  Cl858  1  0.66666667  0.41666667  0.16666667  1
  Cl  Cl859  1  0.66666667  0.41666667  0.50000000  1
  Cl  Cl860  1  0.66666667  0.41666667  0.83333333  1
  Cl  Cl861  1  0.66666667  0.75000000  0.16666667  1
  Cl  Cl862  1  0.66666667  0.75000000  0.50000000  1
  Cl  Cl863  1  0.66666667  0.75000000  0.83333333  1
  Cl  Cl864  1  0.00000000  0.25000000  1.00000000  1
  Cl  Cl865  1  0.00000000  0.25000000  0.33333333  1
  Cl  Cl866  1  0.00000000  0.25000000  0.66666667  1
  Cl  Cl867  1  0.00000000  0.58333333  0.00000000  1
  Cl  Cl868  1  0.00000000  0.58333333  0.33333333  1
  Cl  Cl869  1  0.00000000  0.58333333  0.66666667  1
  Cl  Cl870  1  0.00000000  0.91666667  1.00000000  1
  Cl  Cl871  1  0.00000000  0.91666667  0.33333333  1
  Cl  Cl872  1  0.00000000  0.91666667  0.66666667  1
  Cl  Cl873  1  0.33333333  0.25000000  0.00000000  1
  Cl  Cl874  1  0.33333333  0.25000000  0.33333333  1
  Cl  Cl875  1  0.33333333  0.25000000  0.66666667  1
  Cl  Cl876  1  0.33333333  0.58333333  1.00000000  1
  Cl  Cl877  1  0.33333333  0.58333333  0.33333333  1
  Cl  Cl878  1  0.33333333  0.58333333  0.66666667  1
  Cl  Cl879  1  0.33333333  0.91666667  1.00000000  1
  Cl  Cl880  1  0.33333333  0.91666667  0.33333333  1
  Cl  Cl881  1  0.33333333  0.91666667  0.66666667  1
  Cl  Cl882  1  0.66666667  0.25000000  1.00000000  1
  Cl  Cl883  1  0.66666667  0.25000000  0.33333333  1
  Cl  Cl884  1  0.66666667  0.25000000  0.66666667  1
  Cl  Cl885  1  0.66666667  0.58333333  1.00000000  1
  Cl  Cl886  1  0.66666667  0.58333333  0.33333333  1
  Cl  Cl887  1  0.66666667  0.58333333  0.66666667  1
  Cl  Cl888  1  0.66666667  0.91666667  1.00000000  1
  Cl  Cl889  1  0.66666667  0.91666667  0.33333333  1
  Cl  Cl890  1  0.66666667  0.91666667  0.66666667  1
  Cl  Cl891  1  0.16666667  0.08333333  1.00000000  1
  Cl  Cl892  1  0.16666667  0.08333333  0.33333333  1
  Cl  Cl893  1  0.16666667  0.08333333  0.66666667  1
  Cl  Cl894  1  0.16666667  0.41666667  0.00000000  1
  Cl  Cl895  1  0.16666667  0.41666667  0.33333333  1
  Cl  Cl896  1  0.16666667  0.41666667  0.66666667  1
  Cl  Cl897  1  0.16666667  0.75000000  1.00000000  1
  Cl  Cl898  1  0.16666667  0.75000000  0.33333333  1
  Cl  Cl899  1  0.16666667  0.75000000  0.66666667  1
  Cl  Cl900  1  0.50000000  0.08333333  0.00000000  1
  Cl  Cl901  1  0.50000000  0.08333333  0.33333333  1
  Cl  Cl902  1  0.50000000  0.08333333  0.66666667  1
  Cl  Cl903  1  0.50000000  0.41666667  1.00000000  1
  Cl  Cl904  1  0.50000000  0.41666667  0.33333333  1
  Cl  Cl905  1  0.50000000  0.41666667  0.66666667  1
  Cl  Cl906  1  0.50000000  0.75000000  1.00000000  1
  Cl  Cl907  1  0.50000000  0.75000000  0.33333333  1
  Cl  Cl908  1  0.50000000  0.75000000  0.66666667  1
  Cl  Cl909  1  0.83333333  0.08333333  1.00000000  1
  Cl  Cl910  1  0.83333333  0.08333333  0.33333333  1
  Cl  Cl911  1  0.83333333  0.08333333  0.66666667  1
  Cl  Cl912  1  0.83333333  0.41666667  1.00000000  1
  Cl  Cl913  1  0.83333333  0.41666667  0.33333333  1
  Cl  Cl914  1  0.83333333  0.41666667  0.66666667  1
  Cl  Cl915  1  0.83333333  0.75000000  1.00000000  1
  Cl  Cl916  1  0.83333333  0.75000000  0.33333333  1
  Cl  Cl917  1  0.83333333  0.75000000  0.66666667  1
  Cl  Cl918  1  0.16666667  0.16666667  0.08333333  1
  Cl  Cl919  1  0.16666667  0.16666667  0.41666667  1
  Cl  Cl920  1  0.16666667  0.16666667  0.75000000  1
  Cl  Cl921  1  0.16666667  0.50000000  0.08333333  1
  Cl  Cl922  1  0.16666667  0.50000000  0.41666667  1
  Cl  Cl923  1  0.16666667  0.50000000  0.75000000  1
  Cl  Cl924  1  0.16666667  0.83333333  0.08333333  1
  Cl  Cl925  1  0.16666667  0.83333333  0.41666667  1
  Cl  Cl926  1  0.16666667  0.83333333  0.75000000  1
  Cl  Cl927  1  0.50000000  0.16666667  0.08333333  1
  Cl  Cl928  1  0.50000000  0.16666667  0.41666667  1
  Cl  Cl929  1  0.50000000  0.16666667  0.75000000  1
  Cl  Cl930  1  0.50000000  0.50000000  0.08333333  1
  Cl  Cl931  1  0.50000000  0.50000000  0.41666667  1
  Cl  Cl932  1  0.50000000  0.50000000  0.75000000  1
  Cl  Cl933  1  0.50000000  0.83333333  0.08333333  1
  Cl  Cl934  1  0.50000000  0.83333333  0.41666667  1
  Cl  Cl935  1  0.50000000  0.83333333  0.75000000  1
  Cl  Cl936  1  0.83333333  0.16666667  0.08333333  1
  Cl  Cl937  1  0.83333333  0.16666667  0.41666667  1
  Cl  Cl938  1  0.83333333  0.16666667  0.75000000  1
  Cl  Cl939  1  0.83333333  0.50000000  0.08333333  1
  Cl  Cl940  1  0.83333333  0.50000000  0.41666667  1
  Cl  Cl941  1  0.83333333  0.50000000  0.75000000  1
  Cl  Cl942  1  0.83333333  0.83333333  0.08333333  1
  Cl  Cl943  1  0.83333333  0.83333333  0.41666667  1
  Cl  Cl944  1  0.83333333  0.83333333  0.75000000  1
  Cl  Cl945  1  0.00000000  0.00000000  0.08333333  1
  Cl  Cl946  1  0.00000000  0.00000000  0.41666667  1
  Cl  Cl947  1  0.00000000  0.00000000  0.75000000  1
  Cl  Cl948  1  0.00000000  0.33333333  0.08333333  1
  Cl  Cl949  1  0.00000000  0.33333333  0.41666667  1
  Cl  Cl950  1  0.00000000  0.33333333  0.75000000  1
  Cl  Cl951  1  0.00000000  0.66666667  0.08333333  1
  Cl  Cl952  1  0.00000000  0.66666667  0.41666667  1
  Cl  Cl953  1  0.00000000  0.66666667  0.75000000  1
  Cl  Cl954  1  0.33333333  0.00000000  0.08333333  1
  Cl  Cl955  1  0.33333333  0.00000000  0.41666667  1
  Cl  Cl956  1  0.33333333  0.00000000  0.75000000  1
  Cl  Cl957  1  0.33333333  0.33333333  0.08333333  1
  Cl  Cl958  1  0.33333333  0.33333333  0.41666667  1
  Cl  Cl959  1  0.33333333  0.33333333  0.75000000  1
  Cl  Cl960  1  0.33333333  0.66666667  0.08333333  1
  Cl  Cl961  1  0.33333333  0.66666667  0.41666667  1
  Cl  Cl962  1  0.33333333  0.66666667  0.75000000  1
  Cl  Cl963  1  0.66666667  0.00000000  0.08333333  1
  Cl  Cl964  1  0.66666667  0.00000000  0.41666667  1
  Cl  Cl965  1  0.66666667  0.00000000  0.75000000  1
  Cl  Cl966  1  0.66666667  0.33333333  0.08333333  1
  Cl  Cl967  1  0.66666667  0.33333333  0.41666667  1
  Cl  Cl968  1  0.66666667  0.33333333  0.75000000  1
  Cl  Cl969  1  0.66666667  0.66666667  0.08333333  1
  Cl  Cl970  1  0.66666667  0.66666667  0.41666667  1
  Cl  Cl971  1  0.66666667  0.66666667  0.75000000  1
  Cl  Cl972  1  0.00000000  0.16666667  0.25000000  1
  Cl  Cl973  1  0.00000000  0.16666667  0.58333333  1
  Cl  Cl974  1  0.00000000  0.16666667  0.91666667  1
  Cl  Cl975  1  0.00000000  0.50000000  0.25000000  1
  Cl  Cl976  1  0.00000000  0.50000000  0.58333333  1
  Cl  Cl977  1  0.00000000  0.50000000  0.91666667  1
  Cl  Cl978  1  0.00000000  0.83333333  0.25000000  1
  Cl  Cl979  1  0.00000000  0.83333333  0.58333333  1
  Cl  Cl980  1  0.00000000  0.83333333  0.91666667  1
  Cl  Cl981  1  0.33333333  0.16666667  0.25000000  1
  Cl  Cl982  1  0.33333333  0.16666667  0.58333333  1
  Cl  Cl983  1  0.33333333  0.16666667  0.91666667  1
  Cl  Cl984  1  0.33333333  0.50000000  0.25000000  1
  Cl  Cl985  1  0.33333333  0.50000000  0.58333333  1
  Cl  Cl986  1  0.33333333  0.50000000  0.91666667  1
  Cl  Cl987  1  0.33333333  0.83333333  0.25000000  1
  Cl  Cl988  1  0.33333333  0.83333333  0.58333333  1
  Cl  Cl989  1  0.33333333  0.83333333  0.91666667  1
  Cl  Cl990  1  0.66666667  0.16666667  0.25000000  1
  Cl  Cl991  1  0.66666667  0.16666667  0.58333333  1
  Cl  Cl992  1  0.66666667  0.16666667  0.91666667  1
  Cl  Cl993  1  0.66666667  0.50000000  0.25000000  1
  Cl  Cl994  1  0.66666667  0.50000000  0.58333333  1
  Cl  Cl995  1  0.66666667  0.50000000  0.91666667  1
  Cl  Cl996  1  0.66666667  0.83333333  0.25000000  1
  Cl  Cl997  1  0.66666667  0.83333333  0.58333333  1
  Cl  Cl998  1  0.66666667  0.83333333  0.91666667  1
  Cl  Cl999  1  0.16666667  0.00000000  0.25000000  1
  Cl  Cl1000  1  0.16666667  0.00000000  0.58333333  1
  Cl  Cl1001  1  0.16666667  0.00000000  0.91666667  1
  Cl  Cl1002  1  0.16666667  0.33333333  0.25000000  1
  Cl  Cl1003  1  0.16666667  0.33333333  0.58333333  1
  Cl  Cl1004  1  0.16666667  0.33333333  0.91666667  1
  Cl  Cl1005  1  0.16666667  0.66666667  0.25000000  1
  Cl  Cl1006  1  0.16666667  0.66666667  0.58333333  1
  Cl  Cl1007  1  0.16666667  0.66666667  0.91666667  1
  Cl  Cl1008  1  0.50000000  0.00000000  0.25000000  1
  Cl  Cl1009  1  0.50000000  0.00000000  0.58333333  1
  Cl  Cl1010  1  0.50000000  0.00000000  0.91666667  1
  Cl  Cl1011  1  0.50000000  0.33333333  0.25000000  1
  Cl  Cl1012  1  0.50000000  0.33333333  0.58333333  1
  Cl  Cl1013  1  0.50000000  0.33333333  0.91666667  1
  Cl  Cl1014  1  0.50000000  0.66666667  0.25000000  1
  Cl  Cl1015  1  0.50000000  0.66666667  0.58333333  1
  Cl  Cl1016  1  0.50000000  0.66666667  0.91666667  1
  Cl  Cl1017  1  0.83333333  0.00000000  0.25000000  1
  Cl  Cl1018  1  0.83333333  0.00000000  0.58333333  1
  Cl  Cl1019  1  0.83333333  0.00000000  0.91666667  1
  Cl  Cl1020  1  0.83333333  0.33333333  0.25000000  1
  Cl  Cl1021  1  0.83333333  0.33333333  0.58333333  1
  Cl  Cl1022  1  0.83333333  0.33333333  0.91666667  1
  Cl  Cl1023  1  0.83333333  0.66666667  0.25000000  1
  Cl  Cl1024  1  0.83333333  0.66666667  0.58333333  1
  Cl  Cl1025  1  0.83333333  0.66666667  0.91666667  1
  Cl  Cl1026  1  0.16666667  0.16666667  0.25000000  1
  Cl  Cl1027  1  0.16666667  0.16666667  0.58333333  1
  Cl  Cl1028  1  0.16666667  0.16666667  0.91666667  1
  Cl  Cl1029  1  0.16666667  0.50000000  0.25000000  1
  Cl  Cl1030  1  0.16666667  0.50000000  0.58333333  1
  Cl  Cl1031  1  0.16666667  0.50000000  0.91666667  1
  Cl  Cl1032  1  0.16666667  0.83333333  0.25000000  1
  Cl  Cl1033  1  0.16666667  0.83333333  0.58333333  1
  Cl  Cl1034  1  0.16666667  0.83333333  0.91666667  1
  Cl  Cl1035  1  0.50000000  0.16666667  0.25000000  1
  Cl  Cl1036  1  0.50000000  0.16666667  0.58333333  1
  Cl  Cl1037  1  0.50000000  0.16666667  0.91666667  1
  Cl  Cl1038  1  0.50000000  0.50000000  0.25000000  1
  Cl  Cl1039  1  0.50000000  0.50000000  0.58333333  1
  Cl  Cl1040  1  0.50000000  0.50000000  0.91666667  1
  Cl  Cl1041  1  0.50000000  0.83333333  0.25000000  1
  Cl  Cl1042  1  0.50000000  0.83333333  0.58333333  1
  Cl  Cl1043  1  0.50000000  0.83333333  0.91666667  1
  Cl  Cl1044  1  0.83333333  0.16666667  0.25000000  1
  Cl  Cl1045  1  0.83333333  0.16666667  0.58333333  1
  Cl  Cl1046  1  0.83333333  0.16666667  0.91666667  1
  Cl  Cl1047  1  0.83333333  0.50000000  0.25000000  1
  Cl  Cl1048  1  0.83333333  0.50000000  0.58333333  1
  Cl  Cl1049  1  0.83333333  0.50000000  0.91666667  1
  Cl  Cl1050  1  0.83333333  0.83333333  0.25000000  1
  Cl  Cl1051  1  0.83333333  0.83333333  0.58333333  1
  Cl  Cl1052  1  0.83333333  0.83333333  0.91666667  1
  Cl  Cl1053  1  0.00000000  0.00000000  0.25000000  1
  Cl  Cl1054  1  0.00000000  0.00000000  0.58333333  1
  Cl  Cl1055  1  0.00000000  0.00000000  0.91666667  1
  Cl  Cl1056  1  0.00000000  0.33333333  0.25000000  1
  Cl  Cl1057  1  0.00000000  0.33333333  0.58333333  1
  Cl  Cl1058  1  0.00000000  0.33333333  0.91666667  1
  Cl  Cl1059  1  0.00000000  0.66666667  0.25000000  1
  Cl  Cl1060  1  0.00000000  0.66666667  0.58333333  1
  Cl  Cl1061  1  0.00000000  0.66666667  0.91666667  1
  Cl  Cl1062  1  0.33333333  0.00000000  0.25000000  1
  Cl  Cl1063  1  0.33333333  0.00000000  0.58333333  1
  Cl  Cl1064  1  0.33333333  0.00000000  0.91666667  1
  Cl  Cl1065  1  0.33333333  0.33333333  0.25000000  1
  Cl  Cl1066  1  0.33333333  0.33333333  0.58333333  1
  Cl  Cl1067  1  0.33333333  0.33333333  0.91666667  1
  Cl  Cl1068  1  0.33333333  0.66666667  0.25000000  1
  Cl  Cl1069  1  0.33333333  0.66666667  0.58333333  1
  Cl  Cl1070  1  0.33333333  0.66666667  0.91666667  1
  Cl  Cl1071  1  0.66666667  0.00000000  0.25000000  1
  Cl  Cl1072  1  0.66666667  0.00000000  0.58333333  1
  Cl  Cl1073  1  0.66666667  0.00000000  0.91666667  1
  Cl  Cl1074  1  0.66666667  0.33333333  0.25000000  1
  Cl  Cl1075  1  0.66666667  0.33333333  0.58333333  1
  Cl  Cl1076  1  0.66666667  0.33333333  0.91666667  1
  Cl  Cl1077  1  0.66666667  0.66666667  0.25000000  1
  Cl  Cl1078  1  0.66666667  0.66666667  0.58333333  1
  Cl  Cl1079  1  0.66666667  0.66666667  0.91666667  1
  Cl  Cl1080  1  0.00000000  0.16666667  0.08333333  1
  Cl  Cl1081  1  0.00000000  0.16666667  0.41666667  1
  Cl  Cl1082  1  0.00000000  0.16666667  0.75000000  1
  Cl  Cl1083  1  0.00000000  0.50000000  0.08333333  1
  Cl  Cl1084  1  0.00000000  0.50000000  0.41666667  1
  Cl  Cl1085  1  0.00000000  0.50000000  0.75000000  1
  Cl  Cl1086  1  0.00000000  0.83333333  0.08333333  1
  Cl  Cl1087  1  0.00000000  0.83333333  0.41666667  1
  Cl  Cl1088  1  0.00000000  0.83333333  0.75000000  1
  Cl  Cl1089  1  0.33333333  0.16666667  0.08333333  1
  Cl  Cl1090  1  0.33333333  0.16666667  0.41666667  1
  Cl  Cl1091  1  0.33333333  0.16666667  0.75000000  1
  Cl  Cl1092  1  0.33333333  0.50000000  0.08333333  1
  Cl  Cl1093  1  0.33333333  0.50000000  0.41666667  1
  Cl  Cl1094  1  0.33333333  0.50000000  0.75000000  1
  Cl  Cl1095  1  0.33333333  0.83333333  0.08333333  1
  Cl  Cl1096  1  0.33333333  0.83333333  0.41666667  1
  Cl  Cl1097  1  0.33333333  0.83333333  0.75000000  1
  Cl  Cl1098  1  0.66666667  0.16666667  0.08333333  1
  Cl  Cl1099  1  0.66666667  0.16666667  0.41666667  1
  Cl  Cl1100  1  0.66666667  0.16666667  0.75000000  1
  Cl  Cl1101  1  0.66666667  0.50000000  0.08333333  1
  Cl  Cl1102  1  0.66666667  0.50000000  0.41666667  1
  Cl  Cl1103  1  0.66666667  0.50000000  0.75000000  1
  Cl  Cl1104  1  0.66666667  0.83333333  0.08333333  1
  Cl  Cl1105  1  0.66666667  0.83333333  0.41666667  1
  Cl  Cl1106  1  0.66666667  0.83333333  0.75000000  1
  Cl  Cl1107  1  0.16666667  0.00000000  0.08333333  1
  Cl  Cl1108  1  0.16666667  0.00000000  0.41666667  1
  Cl  Cl1109  1  0.16666667  0.00000000  0.75000000  1
  Cl  Cl1110  1  0.16666667  0.33333333  0.08333333  1
  Cl  Cl1111  1  0.16666667  0.33333333  0.41666667  1
  Cl  Cl1112  1  0.16666667  0.33333333  0.75000000  1
  Cl  Cl1113  1  0.16666667  0.66666667  0.08333333  1
  Cl  Cl1114  1  0.16666667  0.66666667  0.41666667  1
  Cl  Cl1115  1  0.16666667  0.66666667  0.75000000  1
  Cl  Cl1116  1  0.50000000  0.00000000  0.08333333  1
  Cl  Cl1117  1  0.50000000  0.00000000  0.41666667  1
  Cl  Cl1118  1  0.50000000  0.00000000  0.75000000  1
  Cl  Cl1119  1  0.50000000  0.33333333  0.08333333  1
  Cl  Cl1120  1  0.50000000  0.33333333  0.41666667  1
  Cl  Cl1121  1  0.50000000  0.33333333  0.75000000  1
  Cl  Cl1122  1  0.50000000  0.66666667  0.08333333  1
  Cl  Cl1123  1  0.50000000  0.66666667  0.41666667  1
  Cl  Cl1124  1  0.50000000  0.66666667  0.75000000  1
  Cl  Cl1125  1  0.83333333  0.00000000  0.08333333  1
  Cl  Cl1126  1  0.83333333  0.00000000  0.41666667  1
  Cl  Cl1127  1  0.83333333  0.00000000  0.75000000  1
  Cl  Cl1128  1  0.83333333  0.33333333  0.08333333  1
  Cl  Cl1129  1  0.83333333  0.33333333  0.41666667  1
  Cl  Cl1130  1  0.83333333  0.33333333  0.75000000  1
  Cl  Cl1131  1  0.83333333  0.66666667  0.08333333  1
  Cl  Cl1132  1  0.83333333  0.66666667  0.41666667  1
  Cl  Cl1133  1  0.83333333  0.66666667  0.75000000  1
  Cl  Cl1134  1  0.16666667  0.08333333  0.16666667  1
  Cl  Cl1135  1  0.16666667  0.08333333  0.50000000  1
  Cl  Cl1136  1  0.16666667  0.08333333  0.83333333  1
  Cl  Cl1137  1  0.16666667  0.41666667  0.16666667  1
  Cl  Cl1138  1  0.16666667  0.41666667  0.50000000  1
  Cl  Cl1139  1  0.16666667  0.41666667  0.83333333  1
  Cl  Cl1140  1  0.16666667  0.75000000  0.16666667  1
  Cl  Cl1141  1  0.16666667  0.75000000  0.50000000  1
  Cl  Cl1142  1  0.16666667  0.75000000  0.83333333  1
  Cl  Cl1143  1  0.50000000  0.08333333  0.16666667  1
  Cl  Cl1144  1  0.50000000  0.08333333  0.50000000  1
  Cl  Cl1145  1  0.50000000  0.08333333  0.83333333  1
  Cl  Cl1146  1  0.50000000  0.41666667  0.16666667  1
  Cl  Cl1147  1  0.50000000  0.41666667  0.50000000  1
  Cl  Cl1148  1  0.50000000  0.41666667  0.83333333  1
  Cl  Cl1149  1  0.50000000  0.75000000  0.16666667  1
  Cl  Cl1150  1  0.50000000  0.75000000  0.50000000  1
  Cl  Cl1151  1  0.50000000  0.75000000  0.83333333  1
  Cl  Cl1152  1  0.83333333  0.08333333  0.16666667  1
  Cl  Cl1153  1  0.83333333  0.08333333  0.50000000  1
  Cl  Cl1154  1  0.83333333  0.08333333  0.83333333  1
  Cl  Cl1155  1  0.83333333  0.41666667  0.16666667  1
  Cl  Cl1156  1  0.83333333  0.41666667  0.50000000  1
  Cl  Cl1157  1  0.83333333  0.41666667  0.83333333  1
  Cl  Cl1158  1  0.83333333  0.75000000  0.16666667  1
  Cl  Cl1159  1  0.83333333  0.75000000  0.50000000  1
  Cl  Cl1160  1  0.83333333  0.75000000  0.83333333  1
  Cl  Cl1161  1  0.00000000  0.25000000  0.16666667  1
  Cl  Cl1162  1  0.00000000  0.25000000  0.50000000  1
  Cl  Cl1163  1  0.00000000  0.25000000  0.83333333  1
  Cl  Cl1164  1  0.00000000  0.58333333  0.16666667  1
  Cl  Cl1165  1  0.00000000  0.58333333  0.50000000  1
  Cl  Cl1166  1  0.00000000  0.58333333  0.83333333  1
  Cl  Cl1167  1  0.00000000  0.91666667  0.16666667  1
  Cl  Cl1168  1  0.00000000  0.91666667  0.50000000  1
  Cl  Cl1169  1  0.00000000  0.91666667  0.83333333  1
  Cl  Cl1170  1  0.33333333  0.25000000  0.16666667  1
  Cl  Cl1171  1  0.33333333  0.25000000  0.50000000  1
  Cl  Cl1172  1  0.33333333  0.25000000  0.83333333  1
  Cl  Cl1173  1  0.33333333  0.58333333  0.16666667  1
  Cl  Cl1174  1  0.33333333  0.58333333  0.50000000  1
  Cl  Cl1175  1  0.33333333  0.58333333  0.83333333  1
  Cl  Cl1176  1  0.33333333  0.91666667  0.16666667  1
  Cl  Cl1177  1  0.33333333  0.91666667  0.50000000  1
  Cl  Cl1178  1  0.33333333  0.91666667  0.83333333  1
  Cl  Cl1179  1  0.66666667  0.25000000  0.16666667  1
  Cl  Cl1180  1  0.66666667  0.25000000  0.50000000  1
  Cl  Cl1181  1  0.66666667  0.25000000  0.83333333  1
  Cl  Cl1182  1  0.66666667  0.58333333  0.16666667  1
  Cl  Cl1183  1  0.66666667  0.58333333  0.50000000  1
  Cl  Cl1184  1  0.66666667  0.58333333  0.83333333  1
  Cl  Cl1185  1  0.66666667  0.91666667  0.16666667  1
  Cl  Cl1186  1  0.66666667  0.91666667  0.50000000  1
  Cl  Cl1187  1  0.66666667  0.91666667  0.83333333  1
  Cl  Cl1188  1  0.00000000  0.08333333  0.00000000  1
  Cl  Cl1189  1  0.00000000  0.08333333  0.33333333  1
  Cl  Cl1190  1  0.00000000  0.08333333  0.66666667  1
  Cl  Cl1191  1  0.00000000  0.41666667  0.00000000  1
  Cl  Cl1192  1  0.00000000  0.41666667  0.33333333  1
  Cl  Cl1193  1  0.00000000  0.41666667  0.66666667  1
  Cl  Cl1194  1  0.00000000  0.75000000  1.00000000  1
  Cl  Cl1195  1  0.00000000  0.75000000  0.33333333  1
  Cl  Cl1196  1  0.00000000  0.75000000  0.66666667  1
  Cl  Cl1197  1  0.33333333  0.08333333  0.00000000  1
  Cl  Cl1198  1  0.33333333  0.08333333  0.33333333  1
  Cl  Cl1199  1  0.33333333  0.08333333  0.66666667  1
  Cl  Cl1200  1  0.33333333  0.41666667  1.00000000  1
  Cl  Cl1201  1  0.33333333  0.41666667  0.33333333  1
  Cl  Cl1202  1  0.33333333  0.41666667  0.66666667  1
  Cl  Cl1203  1  0.33333333  0.75000000  1.00000000  1
  Cl  Cl1204  1  0.33333333  0.75000000  0.33333333  1
  Cl  Cl1205  1  0.33333333  0.75000000  0.66666667  1
  Cl  Cl1206  1  0.66666667  0.08333333  0.00000000  1
  Cl  Cl1207  1  0.66666667  0.08333333  0.33333333  1
  Cl  Cl1208  1  0.66666667  0.08333333  0.66666667  1
  Cl  Cl1209  1  0.66666667  0.41666667  1.00000000  1
  Cl  Cl1210  1  0.66666667  0.41666667  0.33333333  1
  Cl  Cl1211  1  0.66666667  0.41666667  0.66666667  1
  Cl  Cl1212  1  0.66666667  0.75000000  1.00000000  1
  Cl  Cl1213  1  0.66666667  0.75000000  0.33333333  1
  Cl  Cl1214  1  0.66666667  0.75000000  0.66666667  1
  Cl  Cl1215  1  0.16666667  0.25000000  0.00000000  1
  Cl  Cl1216  1  0.16666667  0.25000000  0.33333333  1
  Cl  Cl1217  1  0.16666667  0.25000000  0.66666667  1
  Cl  Cl1218  1  0.16666667  0.58333333  0.00000000  1
  Cl  Cl1219  1  0.16666667  0.58333333  0.33333333  1
  Cl  Cl1220  1  0.16666667  0.58333333  0.66666667  1
  Cl  Cl1221  1  0.16666667  0.91666667  0.00000000  1
  Cl  Cl1222  1  0.16666667  0.91666667  0.33333333  1
  Cl  Cl1223  1  0.16666667  0.91666667  0.66666667  1
  Cl  Cl1224  1  0.50000000  0.25000000  1.00000000  1
  Cl  Cl1225  1  0.50000000  0.25000000  0.33333333  1
  Cl  Cl1226  1  0.50000000  0.25000000  0.66666667  1
  Cl  Cl1227  1  0.50000000  0.58333333  0.00000000  1
  Cl  Cl1228  1  0.50000000  0.58333333  0.33333333  1
  Cl  Cl1229  1  0.50000000  0.58333333  0.66666667  1
  Cl  Cl1230  1  0.50000000  0.91666667  1.00000000  1
  Cl  Cl1231  1  0.50000000  0.91666667  0.33333333  1
  Cl  Cl1232  1  0.50000000  0.91666667  0.66666667  1
  Cl  Cl1233  1  0.83333333  0.25000000  0.00000000  1
  Cl  Cl1234  1  0.83333333  0.25000000  0.33333333  1
  Cl  Cl1235  1  0.83333333  0.25000000  0.66666667  1
  Cl  Cl1236  1  0.83333333  0.58333333  1.00000000  1
  Cl  Cl1237  1  0.83333333  0.58333333  0.33333333  1
  Cl  Cl1238  1  0.83333333  0.58333333  0.66666667  1
  Cl  Cl1239  1  0.83333333  0.91666667  1.00000000  1
  Cl  Cl1240  1  0.83333333  0.91666667  0.33333333  1
  Cl  Cl1241  1  0.83333333  0.91666667  0.66666667  1
  Cl  Cl1242  1  0.08333333  0.16666667  0.16666667  1
  Cl  Cl1243  1  0.08333333  0.16666667  0.50000000  1
  Cl  Cl1244  1  0.08333333  0.16666667  0.83333333  1
  Cl  Cl1245  1  0.08333333  0.50000000  0.16666667  1
  Cl  Cl1246  1  0.08333333  0.50000000  0.50000000  1
  Cl  Cl1247  1  0.08333333  0.50000000  0.83333333  1
  Cl  Cl1248  1  0.08333333  0.83333333  0.16666667  1
  Cl  Cl1249  1  0.08333333  0.83333333  0.50000000  1
  Cl  Cl1250  1  0.08333333  0.83333333  0.83333333  1
  Cl  Cl1251  1  0.41666667  0.16666667  0.16666667  1
  Cl  Cl1252  1  0.41666667  0.16666667  0.50000000  1
  Cl  Cl1253  1  0.41666667  0.16666667  0.83333333  1
  Cl  Cl1254  1  0.41666667  0.50000000  0.16666667  1
  Cl  Cl1255  1  0.41666667  0.50000000  0.50000000  1
  Cl  Cl1256  1  0.41666667  0.50000000  0.83333333  1
  Cl  Cl1257  1  0.41666667  0.83333333  0.16666667  1
  Cl  Cl1258  1  0.41666667  0.83333333  0.50000000  1
  Cl  Cl1259  1  0.41666667  0.83333333  0.83333333  1
  Cl  Cl1260  1  0.75000000  0.16666667  0.16666667  1
  Cl  Cl1261  1  0.75000000  0.16666667  0.50000000  1
  Cl  Cl1262  1  0.75000000  0.16666667  0.83333333  1
  Cl  Cl1263  1  0.75000000  0.50000000  0.16666667  1
  Cl  Cl1264  1  0.75000000  0.50000000  0.50000000  1
  Cl  Cl1265  1  0.75000000  0.50000000  0.83333333  1
  Cl  Cl1266  1  0.75000000  0.83333333  0.16666667  1
  Cl  Cl1267  1  0.75000000  0.83333333  0.50000000  1
  Cl  Cl1268  1  0.75000000  0.83333333  0.83333333  1
  Cl  Cl1269  1  0.25000000  0.00000000  0.16666667  1
  Cl  Cl1270  1  0.25000000  0.00000000  0.50000000  1
  Cl  Cl1271  1  0.25000000  0.00000000  0.83333333  1
  Cl  Cl1272  1  0.25000000  0.33333333  0.16666667  1
  Cl  Cl1273  1  0.25000000  0.33333333  0.50000000  1
  Cl  Cl1274  1  0.25000000  0.33333333  0.83333333  1
  Cl  Cl1275  1  0.25000000  0.66666667  0.16666667  1
  Cl  Cl1276  1  0.25000000  0.66666667  0.50000000  1
  Cl  Cl1277  1  0.25000000  0.66666667  0.83333333  1
  Cl  Cl1278  1  0.58333333  0.00000000  0.16666667  1
  Cl  Cl1279  1  0.58333333  0.00000000  0.50000000  1
  Cl  Cl1280  1  0.58333333  0.00000000  0.83333333  1
  Cl  Cl1281  1  0.58333333  0.33333333  0.16666667  1
  Cl  Cl1282  1  0.58333333  0.33333333  0.50000000  1
  Cl  Cl1283  1  0.58333333  0.33333333  0.83333333  1
  Cl  Cl1284  1  0.58333333  0.66666667  0.16666667  1
  Cl  Cl1285  1  0.58333333  0.66666667  0.50000000  1
  Cl  Cl1286  1  0.58333333  0.66666667  0.83333333  1
  Cl  Cl1287  1  0.91666667  0.00000000  0.16666667  1
  Cl  Cl1288  1  0.91666667  0.00000000  0.50000000  1
  Cl  Cl1289  1  0.91666667  0.00000000  0.83333333  1
  Cl  Cl1290  1  0.91666667  0.33333333  0.16666667  1
  Cl  Cl1291  1  0.91666667  0.33333333  0.50000000  1
  Cl  Cl1292  1  0.91666667  0.33333333  0.83333333  1
  Cl  Cl1293  1  0.91666667  0.66666667  0.16666667  1
  Cl  Cl1294  1  0.91666667  0.66666667  0.50000000  1
  Cl  Cl1295  1  0.91666667  0.66666667  0.83333333  1
  Cl  Cl1296  1  0.25000000  0.16666667  1.00000000  1
  Cl  Cl1297  1  0.25000000  0.16666667  0.33333333  1
  Cl  Cl1298  1  0.25000000  0.16666667  0.66666667  1
  Cl  Cl1299  1  0.25000000  0.50000000  1.00000000  1
  Cl  Cl1300  1  0.25000000  0.50000000  0.33333333  1
  Cl  Cl1301  1  0.25000000  0.50000000  0.66666667  1
  Cl  Cl1302  1  0.25000000  0.83333333  0.00000000  1
  Cl  Cl1303  1  0.25000000  0.83333333  0.33333333  1
  Cl  Cl1304  1  0.25000000  0.83333333  0.66666667  1
  Cl  Cl1305  1  0.58333333  0.16666667  1.00000000  1
  Cl  Cl1306  1  0.58333333  0.16666667  0.33333333  1
  Cl  Cl1307  1  0.58333333  0.16666667  0.66666667  1
  Cl  Cl1308  1  0.58333333  0.50000000  0.00000000  1
  Cl  Cl1309  1  0.58333333  0.50000000  0.33333333  1
  Cl  Cl1310  1  0.58333333  0.50000000  0.66666667  1
  Cl  Cl1311  1  0.58333333  0.83333333  1.00000000  1
  Cl  Cl1312  1  0.58333333  0.83333333  0.33333333  1
  Cl  Cl1313  1  0.58333333  0.83333333  0.66666667  1
  Cl  Cl1314  1  0.91666667  0.16666667  0.00000000  1
  Cl  Cl1315  1  0.91666667  0.16666667  0.33333333  1
  Cl  Cl1316  1  0.91666667  0.16666667  0.66666667  1
  Cl  Cl1317  1  0.91666667  0.50000000  1.00000000  1
  Cl  Cl1318  1  0.91666667  0.50000000  0.33333333  1
  Cl  Cl1319  1  0.91666667  0.50000000  0.66666667  1
  Cl  Cl1320  1  0.91666667  0.83333333  1.00000000  1
  Cl  Cl1321  1  0.91666667  0.83333333  0.33333333  1
  Cl  Cl1322  1  0.91666667  0.83333333  0.66666667  1
  Cl  Cl1323  1  0.08333333  0.00000000  0.00000000  1
  Cl  Cl1324  1  0.08333333  0.00000000  0.33333333  1
  Cl  Cl1325  1  0.08333333  0.00000000  0.66666667  1
  Cl  Cl1326  1  0.08333333  0.33333333  0.00000000  1
  Cl  Cl1327  1  0.08333333  0.33333333  0.33333333  1
  Cl  Cl1328  1  0.08333333  0.33333333  0.66666667  1
  Cl  Cl1329  1  0.08333333  0.66666667  0.00000000  1
  Cl  Cl1330  1  0.08333333  0.66666667  0.33333333  1
  Cl  Cl1331  1  0.08333333  0.66666667  0.66666667  1
  Cl  Cl1332  1  0.41666667  0.00000000  1.00000000  1
  Cl  Cl1333  1  0.41666667  0.00000000  0.33333333  1
  Cl  Cl1334  1  0.41666667  0.00000000  0.66666667  1
  Cl  Cl1335  1  0.41666667  0.33333333  1.00000000  1
  Cl  Cl1336  1  0.41666667  0.33333333  0.33333333  1
  Cl  Cl1337  1  0.41666667  0.33333333  0.66666667  1
  Cl  Cl1338  1  0.41666667  0.66666667  1.00000000  1
  Cl  Cl1339  1  0.41666667  0.66666667  0.33333333  1
  Cl  Cl1340  1  0.41666667  0.66666667  0.66666667  1
  Cl  Cl1341  1  0.75000000  0.00000000  1.00000000  1
  Cl  Cl1342  1  0.75000000  0.00000000  0.33333333  1
  Cl  Cl1343  1  0.75000000  0.00000000  0.66666667  1
  Cl  Cl1344  1  0.75000000  0.33333333  1.00000000  1
  Cl  Cl1345  1  0.75000000  0.33333333  0.33333333  1
  Cl  Cl1346  1  0.75000000  0.33333333  0.66666667  1
  Cl  Cl1347  1  0.75000000  0.66666667  1.00000000  1
  Cl  Cl1348  1  0.75000000  0.66666667  0.33333333  1
  Cl  Cl1349  1  0.75000000  0.66666667  0.66666667  1
  Cl  Cl1350  1  0.08333333  0.08333333  0.08333333  1
  Cl  Cl1351  1  0.08333333  0.08333333  0.41666667  1
  Cl  Cl1352  1  0.08333333  0.08333333  0.75000000  1
  Cl  Cl1353  1  0.08333333  0.41666667  0.08333333  1
  Cl  Cl1354  1  0.08333333  0.41666667  0.41666667  1
  Cl  Cl1355  1  0.08333333  0.41666667  0.75000000  1
  Cl  Cl1356  1  0.08333333  0.75000000  0.08333333  1
  Cl  Cl1357  1  0.08333333  0.75000000  0.41666667  1
  Cl  Cl1358  1  0.08333333  0.75000000  0.75000000  1
  Cl  Cl1359  1  0.41666667  0.08333333  0.08333333  1
  Cl  Cl1360  1  0.41666667  0.08333333  0.41666667  1
  Cl  Cl1361  1  0.41666667  0.08333333  0.75000000  1
  Cl  Cl1362  1  0.41666667  0.41666667  0.08333333  1
  Cl  Cl1363  1  0.41666667  0.41666667  0.41666667  1
  Cl  Cl1364  1  0.41666667  0.41666667  0.75000000  1
  Cl  Cl1365  1  0.41666667  0.75000000  0.08333333  1
  Cl  Cl1366  1  0.41666667  0.75000000  0.41666667  1
  Cl  Cl1367  1  0.41666667  0.75000000  0.75000000  1
  Cl  Cl1368  1  0.75000000  0.08333333  0.08333333  1
  Cl  Cl1369  1  0.75000000  0.08333333  0.41666667  1
  Cl  Cl1370  1  0.75000000  0.08333333  0.75000000  1
  Cl  Cl1371  1  0.75000000  0.41666667  0.08333333  1
  Cl  Cl1372  1  0.75000000  0.41666667  0.41666667  1
  Cl  Cl1373  1  0.75000000  0.41666667  0.75000000  1
  Cl  Cl1374  1  0.75000000  0.75000000  0.08333333  1
  Cl  Cl1375  1  0.75000000  0.75000000  0.41666667  1
  Cl  Cl1376  1  0.75000000  0.75000000  0.75000000  1
  Cl  Cl1377  1  0.25000000  0.25000000  0.08333333  1
  Cl  Cl1378  1  0.25000000  0.25000000  0.41666667  1
  Cl  Cl1379  1  0.25000000  0.25000000  0.75000000  1
  Cl  Cl1380  1  0.25000000  0.58333333  0.08333333  1
  Cl  Cl1381  1  0.25000000  0.58333333  0.41666667  1
  Cl  Cl1382  1  0.25000000  0.58333333  0.75000000  1
  Cl  Cl1383  1  0.25000000  0.91666667  0.08333333  1
  Cl  Cl1384  1  0.25000000  0.91666667  0.41666667  1
  Cl  Cl1385  1  0.25000000  0.91666667  0.75000000  1
  Cl  Cl1386  1  0.58333333  0.25000000  0.08333333  1
  Cl  Cl1387  1  0.58333333  0.25000000  0.41666667  1
  Cl  Cl1388  1  0.58333333  0.25000000  0.75000000  1
  Cl  Cl1389  1  0.58333333  0.58333333  0.08333333  1
  Cl  Cl1390  1  0.58333333  0.58333333  0.41666667  1
  Cl  Cl1391  1  0.58333333  0.58333333  0.75000000  1
  Cl  Cl1392  1  0.58333333  0.91666667  0.08333333  1
  Cl  Cl1393  1  0.58333333  0.91666667  0.41666667  1
  Cl  Cl1394  1  0.58333333  0.91666667  0.75000000  1
  Cl  Cl1395  1  0.91666667  0.25000000  0.08333333  1
  Cl  Cl1396  1  0.91666667  0.25000000  0.41666667  1
  Cl  Cl1397  1  0.91666667  0.25000000  0.75000000  1
  Cl  Cl1398  1  0.91666667  0.58333333  0.08333333  1
  Cl  Cl1399  1  0.91666667  0.58333333  0.41666667  1
  Cl  Cl1400  1  0.91666667  0.58333333  0.75000000  1
  Cl  Cl1401  1  0.91666667  0.91666667  0.08333333  1
  Cl  Cl1402  1  0.91666667  0.91666667  0.41666667  1
  Cl  Cl1403  1  0.91666667  0.91666667  0.75000000  1
  Cl  Cl1404  1  0.25000000  0.08333333  0.25000000  1
  Cl  Cl1405  1  0.25000000  0.08333333  0.58333333  1
  Cl  Cl1406  1  0.25000000  0.08333333  0.91666667  1
  Cl  Cl1407  1  0.25000000  0.41666667  0.25000000  1
  Cl  Cl1408  1  0.25000000  0.41666667  0.58333333  1
  Cl  Cl1409  1  0.25000000  0.41666667  0.91666667  1
  Cl  Cl1410  1  0.25000000  0.75000000  0.25000000  1
  Cl  Cl1411  1  0.25000000  0.75000000  0.58333333  1
  Cl  Cl1412  1  0.25000000  0.75000000  0.91666667  1
  Cl  Cl1413  1  0.58333333  0.08333333  0.25000000  1
  Cl  Cl1414  1  0.58333333  0.08333333  0.58333333  1
  Cl  Cl1415  1  0.58333333  0.08333333  0.91666667  1
  Cl  Cl1416  1  0.58333333  0.41666667  0.25000000  1
  Cl  Cl1417  1  0.58333333  0.41666667  0.58333333  1
  Cl  Cl1418  1  0.58333333  0.41666667  0.91666667  1
  Cl  Cl1419  1  0.58333333  0.75000000  0.25000000  1
  Cl  Cl1420  1  0.58333333  0.75000000  0.58333333  1
  Cl  Cl1421  1  0.58333333  0.75000000  0.91666667  1
  Cl  Cl1422  1  0.91666667  0.08333333  0.25000000  1
  Cl  Cl1423  1  0.91666667  0.08333333  0.58333333  1
  Cl  Cl1424  1  0.91666667  0.08333333  0.91666667  1
  Cl  Cl1425  1  0.91666667  0.41666667  0.25000000  1
  Cl  Cl1426  1  0.91666667  0.41666667  0.58333333  1
  Cl  Cl1427  1  0.91666667  0.41666667  0.91666667  1
  Cl  Cl1428  1  0.91666667  0.75000000  0.25000000  1
  Cl  Cl1429  1  0.91666667  0.75000000  0.58333333  1
  Cl  Cl1430  1  0.91666667  0.75000000  0.91666667  1
  Cl  Cl1431  1  0.08333333  0.25000000  0.25000000  1
  Cl  Cl1432  1  0.08333333  0.25000000  0.58333333  1
  Cl  Cl1433  1  0.08333333  0.25000000  0.91666667  1
  Cl  Cl1434  1  0.08333333  0.58333333  0.25000000  1
  Cl  Cl1435  1  0.08333333  0.58333333  0.58333333  1
  Cl  Cl1436  1  0.08333333  0.58333333  0.91666667  1
  Cl  Cl1437  1  0.08333333  0.91666667  0.25000000  1
  Cl  Cl1438  1  0.08333333  0.91666667  0.58333333  1
  Cl  Cl1439  1  0.08333333  0.91666667  0.91666667  1
  Cl  Cl1440  1  0.41666667  0.25000000  0.25000000  1
  Cl  Cl1441  1  0.41666667  0.25000000  0.58333333  1
  Cl  Cl1442  1  0.41666667  0.25000000  0.91666667  1
  Cl  Cl1443  1  0.41666667  0.58333333  0.25000000  1
  Cl  Cl1444  1  0.41666667  0.58333333  0.58333333  1
  Cl  Cl1445  1  0.41666667  0.58333333  0.91666667  1
  Cl  Cl1446  1  0.41666667  0.91666667  0.25000000  1
  Cl  Cl1447  1  0.41666667  0.91666667  0.58333333  1
  Cl  Cl1448  1  0.41666667  0.91666667  0.91666667  1
  Cl  Cl1449  1  0.75000000  0.25000000  0.25000000  1
  Cl  Cl1450  1  0.75000000  0.25000000  0.58333333  1
  Cl  Cl1451  1  0.75000000  0.25000000  0.91666667  1
  Cl  Cl1452  1  0.75000000  0.58333333  0.25000000  1
  Cl  Cl1453  1  0.75000000  0.58333333  0.58333333  1
  Cl  Cl1454  1  0.75000000  0.58333333  0.91666667  1
  Cl  Cl1455  1  0.75000000  0.91666667  0.25000000  1
  Cl  Cl1456  1  0.75000000  0.91666667  0.58333333  1
  Cl  Cl1457  1  0.75000000  0.91666667  0.91666667  1
