# generated using pymatgen
data_NaCaMg2Be2Nb6O4
_symmetry_space_group_name_H-M   'P 1'
_cell_length_a   41.61480000
_cell_length_b   41.61480000
_cell_length_c   41.61480000
_cell_angle_alpha   90.00000000
_cell_angle_beta   90.00000000
_cell_angle_gamma   90.00000000
_symmetry_Int_Tables_number   1
_chemical_formula_structural   NaCaMg2Be2Nb6O4
_chemical_formula_sum   'Na512 Ca512 Mg1024 Be1024 Nb3072 O2048'
_cell_volume   72068.16020343
_cell_formula_units_Z   512
loop_
 _symmetry_equiv_pos_site_id
 _symmetry_equiv_pos_as_xyz
  1  'x, y, z'
loop_
 _atom_site_type_symbol
 _atom_site_label
 _atom_site_symmetry_multiplicity
 _atom_site_fract_x
 _atom_site_fract_y
 _atom_site_fract_z
 _atom_site_occupancy
  Na  Na0  1  0.09375000  0.09375000  0.09375000  1.0
  Na  Na1  1  0.09375000  0.09375000  0.34375000  1.0
  Na  Na2  1  0.09375000  0.09375000  0.59375000  1.0
  Na  Na3  1  0.09375000  0.09375000  0.84375000  1.0
  Na  Na4  1  0.09375000  0.34375000  0.09375000  1.0
  Na  Na5  1  0.09375000  0.34375000  0.34375000  1.0
  Na  Na6  1  0.09375000  0.34375000  0.59375000  1.0
  Na  Na7  1  0.09375000  0.34375000  0.84375000  1.0
  Na  Na8  1  0.09375000  0.59375000  0.09375000  1.0
  Na  Na9  1  0.09375000  0.59375000  0.34375000  1.0
  Na  Na10  1  0.09375000  0.59375000  0.59375000  1.0
  Na  Na11  1  0.09375000  0.59375000  0.84375000  1.0
  Na  Na12  1  0.09375000  0.84375000  0.09375000  1.0
  Na  Na13  1  0.09375000  0.84375000  0.34375000  1.0
  Na  Na14  1  0.09375000  0.84375000  0.59375000  1.0
  Na  Na15  1  0.09375000  0.84375000  0.84375000  1.0
  Na  Na16  1  0.34375000  0.09375000  0.09375000  1.0
  Na  Na17  1  0.34375000  0.09375000  0.34375000  1.0
  Na  Na18  1  0.34375000  0.09375000  0.59375000  1.0
  Na  Na19  1  0.34375000  0.09375000  0.84375000  1.0
  Na  Na20  1  0.34375000  0.34375000  0.09375000  1.0
  Na  Na21  1  0.34375000  0.34375000  0.34375000  1.0
  Na  Na22  1  0.34375000  0.34375000  0.59375000  1.0
  Na  Na23  1  0.34375000  0.34375000  0.84375000  1.0
  Na  Na24  1  0.34375000  0.59375000  0.09375000  1.0
  Na  Na25  1  0.34375000  0.59375000  0.34375000  1.0
  Na  Na26  1  0.34375000  0.59375000  0.59375000  1.0
  Na  Na27  1  0.34375000  0.59375000  0.84375000  1.0
  Na  Na28  1  0.34375000  0.84375000  0.09375000  1.0
  Na  Na29  1  0.34375000  0.84375000  0.34375000  1.0
  Na  Na30  1  0.34375000  0.84375000  0.59375000  1.0
  Na  Na31  1  0.34375000  0.84375000  0.84375000  1.0
  Na  Na32  1  0.59375000  0.09375000  0.09375000  1.0
  Na  Na33  1  0.59375000  0.09375000  0.34375000  1.0
  Na  Na34  1  0.59375000  0.09375000  0.59375000  1.0
  Na  Na35  1  0.59375000  0.09375000  0.84375000  1.0
  Na  Na36  1  0.59375000  0.34375000  0.09375000  1.0
  Na  Na37  1  0.59375000  0.34375000  0.34375000  1.0
  Na  Na38  1  0.59375000  0.34375000  0.59375000  1.0
  Na  Na39  1  0.59375000  0.34375000  0.84375000  1.0
  Na  Na40  1  0.59375000  0.59375000  0.09375000  1.0
  Na  Na41  1  0.59375000  0.59375000  0.34375000  1.0
  Na  Na42  1  0.59375000  0.59375000  0.59375000  1.0
  Na  Na43  1  0.59375000  0.59375000  0.84375000  1.0
  Na  Na44  1  0.59375000  0.84375000  0.09375000  1.0
  Na  Na45  1  0.59375000  0.84375000  0.34375000  1.0
  Na  Na46  1  0.59375000  0.84375000  0.59375000  1.0
  Na  Na47  1  0.59375000  0.84375000  0.84375000  1.0
  Na  Na48  1  0.84375000  0.09375000  0.09375000  1.0
  Na  Na49  1  0.84375000  0.09375000  0.34375000  1.0
  Na  Na50  1  0.84375000  0.09375000  0.59375000  1.0
  Na  Na51  1  0.84375000  0.09375000  0.84375000  1.0
  Na  Na52  1  0.84375000  0.34375000  0.09375000  1.0
  Na  Na53  1  0.84375000  0.34375000  0.34375000  1.0
  Na  Na54  1  0.84375000  0.34375000  0.59375000  1.0
  Na  Na55  1  0.84375000  0.34375000  0.84375000  1.0
  Na  Na56  1  0.84375000  0.59375000  0.09375000  1.0
  Na  Na57  1  0.84375000  0.59375000  0.34375000  1.0
  Na  Na58  1  0.84375000  0.59375000  0.59375000  1.0
  Na  Na59  1  0.84375000  0.59375000  0.84375000  1.0
  Na  Na60  1  0.84375000  0.84375000  0.09375000  1.0
  Na  Na61  1  0.84375000  0.84375000  0.34375000  1.0
  Na  Na62  1  0.84375000  0.84375000  0.59375000  1.0
  Na  Na63  1  0.84375000  0.84375000  0.84375000  1.0
  Na  Na64  1  0.21875000  0.21875000  0.09375000  1.0
  Na  Na65  1  0.21875000  0.21875000  0.34375000  1.0
  Na  Na66  1  0.21875000  0.21875000  0.59375000  1.0
  Na  Na67  1  0.21875000  0.21875000  0.84375000  1.0
  Na  Na68  1  0.21875000  0.46875000  0.09375000  1.0
  Na  Na69  1  0.21875000  0.46875000  0.34375000  1.0
  Na  Na70  1  0.21875000  0.46875000  0.59375000  1.0
  Na  Na71  1  0.21875000  0.46875000  0.84375000  1.0
  Na  Na72  1  0.21875000  0.71875000  0.09375000  1.0
  Na  Na73  1  0.21875000  0.71875000  0.34375000  1.0
  Na  Na74  1  0.21875000  0.71875000  0.59375000  1.0
  Na  Na75  1  0.21875000  0.71875000  0.84375000  1.0
  Na  Na76  1  0.21875000  0.96875000  0.09375000  1.0
  Na  Na77  1  0.21875000  0.96875000  0.34375000  1.0
  Na  Na78  1  0.21875000  0.96875000  0.59375000  1.0
  Na  Na79  1  0.21875000  0.96875000  0.84375000  1.0
  Na  Na80  1  0.46875000  0.21875000  0.09375000  1.0
  Na  Na81  1  0.46875000  0.21875000  0.34375000  1.0
  Na  Na82  1  0.46875000  0.21875000  0.59375000  1.0
  Na  Na83  1  0.46875000  0.21875000  0.84375000  1.0
  Na  Na84  1  0.46875000  0.46875000  0.09375000  1.0
  Na  Na85  1  0.46875000  0.46875000  0.34375000  1.0
  Na  Na86  1  0.46875000  0.46875000  0.59375000  1.0
  Na  Na87  1  0.46875000  0.46875000  0.84375000  1.0
  Na  Na88  1  0.46875000  0.71875000  0.09375000  1.0
  Na  Na89  1  0.46875000  0.71875000  0.34375000  1.0
  Na  Na90  1  0.46875000  0.71875000  0.59375000  1.0
  Na  Na91  1  0.46875000  0.71875000  0.84375000  1.0
  Na  Na92  1  0.46875000  0.96875000  0.09375000  1.0
  Na  Na93  1  0.46875000  0.96875000  0.34375000  1.0
  Na  Na94  1  0.46875000  0.96875000  0.59375000  1.0
  Na  Na95  1  0.46875000  0.96875000  0.84375000  1.0
  Na  Na96  1  0.71875000  0.21875000  0.09375000  1.0
  Na  Na97  1  0.71875000  0.21875000  0.34375000  1.0
  Na  Na98  1  0.71875000  0.21875000  0.59375000  1.0
  Na  Na99  1  0.71875000  0.21875000  0.84375000  1.0
  Na  Na100  1  0.71875000  0.46875000  0.09375000  1.0
  Na  Na101  1  0.71875000  0.46875000  0.34375000  1.0
  Na  Na102  1  0.71875000  0.46875000  0.59375000  1.0
  Na  Na103  1  0.71875000  0.46875000  0.84375000  1.0
  Na  Na104  1  0.71875000  0.71875000  0.09375000  1.0
  Na  Na105  1  0.71875000  0.71875000  0.34375000  1.0
  Na  Na106  1  0.71875000  0.71875000  0.59375000  1.0
  Na  Na107  1  0.71875000  0.71875000  0.84375000  1.0
  Na  Na108  1  0.71875000  0.96875000  0.09375000  1.0
  Na  Na109  1  0.71875000  0.96875000  0.34375000  1.0
  Na  Na110  1  0.71875000  0.96875000  0.59375000  1.0
  Na  Na111  1  0.71875000  0.96875000  0.84375000  1.0
  Na  Na112  1  0.96875000  0.21875000  0.09375000  1.0
  Na  Na113  1  0.96875000  0.21875000  0.34375000  1.0
  Na  Na114  1  0.96875000  0.21875000  0.59375000  1.0
  Na  Na115  1  0.96875000  0.21875000  0.84375000  1.0
  Na  Na116  1  0.96875000  0.46875000  0.09375000  1.0
  Na  Na117  1  0.96875000  0.46875000  0.34375000  1.0
  Na  Na118  1  0.96875000  0.46875000  0.59375000  1.0
  Na  Na119  1  0.96875000  0.46875000  0.84375000  1.0
  Na  Na120  1  0.96875000  0.71875000  0.09375000  1.0
  Na  Na121  1  0.96875000  0.71875000  0.34375000  1.0
  Na  Na122  1  0.96875000  0.71875000  0.59375000  1.0
  Na  Na123  1  0.96875000  0.71875000  0.84375000  1.0
  Na  Na124  1  0.96875000  0.96875000  0.09375000  1.0
  Na  Na125  1  0.96875000  0.96875000  0.34375000  1.0
  Na  Na126  1  0.96875000  0.96875000  0.59375000  1.0
  Na  Na127  1  0.96875000  0.96875000  0.84375000  1.0
  Na  Na128  1  0.21875000  0.09375000  0.21875000  1.0
  Na  Na129  1  0.21875000  0.09375000  0.46875000  1.0
  Na  Na130  1  0.21875000  0.09375000  0.71875000  1.0
  Na  Na131  1  0.21875000  0.09375000  0.96875000  1.0
  Na  Na132  1  0.21875000  0.34375000  0.21875000  1.0
  Na  Na133  1  0.21875000  0.34375000  0.46875000  1.0
  Na  Na134  1  0.21875000  0.34375000  0.71875000  1.0
  Na  Na135  1  0.21875000  0.34375000  0.96875000  1.0
  Na  Na136  1  0.21875000  0.59375000  0.21875000  1.0
  Na  Na137  1  0.21875000  0.59375000  0.46875000  1.0
  Na  Na138  1  0.21875000  0.59375000  0.71875000  1.0
  Na  Na139  1  0.21875000  0.59375000  0.96875000  1.0
  Na  Na140  1  0.21875000  0.84375000  0.21875000  1.0
  Na  Na141  1  0.21875000  0.84375000  0.46875000  1.0
  Na  Na142  1  0.21875000  0.84375000  0.71875000  1.0
  Na  Na143  1  0.21875000  0.84375000  0.96875000  1.0
  Na  Na144  1  0.46875000  0.09375000  0.21875000  1.0
  Na  Na145  1  0.46875000  0.09375000  0.46875000  1.0
  Na  Na146  1  0.46875000  0.09375000  0.71875000  1.0
  Na  Na147  1  0.46875000  0.09375000  0.96875000  1.0
  Na  Na148  1  0.46875000  0.34375000  0.21875000  1.0
  Na  Na149  1  0.46875000  0.34375000  0.46875000  1.0
  Na  Na150  1  0.46875000  0.34375000  0.71875000  1.0
  Na  Na151  1  0.46875000  0.34375000  0.96875000  1.0
  Na  Na152  1  0.46875000  0.59375000  0.21875000  1.0
  Na  Na153  1  0.46875000  0.59375000  0.46875000  1.0
  Na  Na154  1  0.46875000  0.59375000  0.71875000  1.0
  Na  Na155  1  0.46875000  0.59375000  0.96875000  1.0
  Na  Na156  1  0.46875000  0.84375000  0.21875000  1.0
  Na  Na157  1  0.46875000  0.84375000  0.46875000  1.0
  Na  Na158  1  0.46875000  0.84375000  0.71875000  1.0
  Na  Na159  1  0.46875000  0.84375000  0.96875000  1.0
  Na  Na160  1  0.71875000  0.09375000  0.21875000  1.0
  Na  Na161  1  0.71875000  0.09375000  0.46875000  1.0
  Na  Na162  1  0.71875000  0.09375000  0.71875000  1.0
  Na  Na163  1  0.71875000  0.09375000  0.96875000  1.0
  Na  Na164  1  0.71875000  0.34375000  0.21875000  1.0
  Na  Na165  1  0.71875000  0.34375000  0.46875000  1.0
  Na  Na166  1  0.71875000  0.34375000  0.71875000  1.0
  Na  Na167  1  0.71875000  0.34375000  0.96875000  1.0
  Na  Na168  1  0.71875000  0.59375000  0.21875000  1.0
  Na  Na169  1  0.71875000  0.59375000  0.46875000  1.0
  Na  Na170  1  0.71875000  0.59375000  0.71875000  1.0
  Na  Na171  1  0.71875000  0.59375000  0.96875000  1.0
  Na  Na172  1  0.71875000  0.84375000  0.21875000  1.0
  Na  Na173  1  0.71875000  0.84375000  0.46875000  1.0
  Na  Na174  1  0.71875000  0.84375000  0.71875000  1.0
  Na  Na175  1  0.71875000  0.84375000  0.96875000  1.0
  Na  Na176  1  0.96875000  0.09375000  0.21875000  1.0
  Na  Na177  1  0.96875000  0.09375000  0.46875000  1.0
  Na  Na178  1  0.96875000  0.09375000  0.71875000  1.0
  Na  Na179  1  0.96875000  0.09375000  0.96875000  1.0
  Na  Na180  1  0.96875000  0.34375000  0.21875000  1.0
  Na  Na181  1  0.96875000  0.34375000  0.46875000  1.0
  Na  Na182  1  0.96875000  0.34375000  0.71875000  1.0
  Na  Na183  1  0.96875000  0.34375000  0.96875000  1.0
  Na  Na184  1  0.96875000  0.59375000  0.21875000  1.0
  Na  Na185  1  0.96875000  0.59375000  0.46875000  1.0
  Na  Na186  1  0.96875000  0.59375000  0.71875000  1.0
  Na  Na187  1  0.96875000  0.59375000  0.96875000  1.0
  Na  Na188  1  0.96875000  0.84375000  0.21875000  1.0
  Na  Na189  1  0.96875000  0.84375000  0.46875000  1.0
  Na  Na190  1  0.96875000  0.84375000  0.71875000  1.0
  Na  Na191  1  0.96875000  0.84375000  0.96875000  1.0
  Na  Na192  1  0.09375000  0.21875000  0.21875000  1.0
  Na  Na193  1  0.09375000  0.21875000  0.46875000  1.0
  Na  Na194  1  0.09375000  0.21875000  0.71875000  1.0
  Na  Na195  1  0.09375000  0.21875000  0.96875000  1.0
  Na  Na196  1  0.09375000  0.46875000  0.21875000  1.0
  Na  Na197  1  0.09375000  0.46875000  0.46875000  1.0
  Na  Na198  1  0.09375000  0.46875000  0.71875000  1.0
  Na  Na199  1  0.09375000  0.46875000  0.96875000  1.0
  Na  Na200  1  0.09375000  0.71875000  0.21875000  1.0
  Na  Na201  1  0.09375000  0.71875000  0.46875000  1.0
  Na  Na202  1  0.09375000  0.71875000  0.71875000  1.0
  Na  Na203  1  0.09375000  0.71875000  0.96875000  1.0
  Na  Na204  1  0.09375000  0.96875000  0.21875000  1.0
  Na  Na205  1  0.09375000  0.96875000  0.46875000  1.0
  Na  Na206  1  0.09375000  0.96875000  0.71875000  1.0
  Na  Na207  1  0.09375000  0.96875000  0.96875000  1.0
  Na  Na208  1  0.34375000  0.21875000  0.21875000  1.0
  Na  Na209  1  0.34375000  0.21875000  0.46875000  1.0
  Na  Na210  1  0.34375000  0.21875000  0.71875000  1.0
  Na  Na211  1  0.34375000  0.21875000  0.96875000  1.0
  Na  Na212  1  0.34375000  0.46875000  0.21875000  1.0
  Na  Na213  1  0.34375000  0.46875000  0.46875000  1.0
  Na  Na214  1  0.34375000  0.46875000  0.71875000  1.0
  Na  Na215  1  0.34375000  0.46875000  0.96875000  1.0
  Na  Na216  1  0.34375000  0.71875000  0.21875000  1.0
  Na  Na217  1  0.34375000  0.71875000  0.46875000  1.0
  Na  Na218  1  0.34375000  0.71875000  0.71875000  1.0
  Na  Na219  1  0.34375000  0.71875000  0.96875000  1.0
  Na  Na220  1  0.34375000  0.96875000  0.21875000  1.0
  Na  Na221  1  0.34375000  0.96875000  0.46875000  1.0
  Na  Na222  1  0.34375000  0.96875000  0.71875000  1.0
  Na  Na223  1  0.34375000  0.96875000  0.96875000  1.0
  Na  Na224  1  0.59375000  0.21875000  0.21875000  1.0
  Na  Na225  1  0.59375000  0.21875000  0.46875000  1.0
  Na  Na226  1  0.59375000  0.21875000  0.71875000  1.0
  Na  Na227  1  0.59375000  0.21875000  0.96875000  1.0
  Na  Na228  1  0.59375000  0.46875000  0.21875000  1.0
  Na  Na229  1  0.59375000  0.46875000  0.46875000  1.0
  Na  Na230  1  0.59375000  0.46875000  0.71875000  1.0
  Na  Na231  1  0.59375000  0.46875000  0.96875000  1.0
  Na  Na232  1  0.59375000  0.71875000  0.21875000  1.0
  Na  Na233  1  0.59375000  0.71875000  0.46875000  1.0
  Na  Na234  1  0.59375000  0.71875000  0.71875000  1.0
  Na  Na235  1  0.59375000  0.71875000  0.96875000  1.0
  Na  Na236  1  0.59375000  0.96875000  0.21875000  1.0
  Na  Na237  1  0.59375000  0.96875000  0.46875000  1.0
  Na  Na238  1  0.59375000  0.96875000  0.71875000  1.0
  Na  Na239  1  0.59375000  0.96875000  0.96875000  1.0
  Na  Na240  1  0.84375000  0.21875000  0.21875000  1.0
  Na  Na241  1  0.84375000  0.21875000  0.46875000  1.0
  Na  Na242  1  0.84375000  0.21875000  0.71875000  1.0
  Na  Na243  1  0.84375000  0.21875000  0.96875000  1.0
  Na  Na244  1  0.84375000  0.46875000  0.21875000  1.0
  Na  Na245  1  0.84375000  0.46875000  0.46875000  1.0
  Na  Na246  1  0.84375000  0.46875000  0.71875000  1.0
  Na  Na247  1  0.84375000  0.46875000  0.96875000  1.0
  Na  Na248  1  0.84375000  0.71875000  0.21875000  1.0
  Na  Na249  1  0.84375000  0.71875000  0.46875000  1.0
  Na  Na250  1  0.84375000  0.71875000  0.71875000  1.0
  Na  Na251  1  0.84375000  0.71875000  0.96875000  1.0
  Na  Na252  1  0.84375000  0.96875000  0.21875000  1.0
  Na  Na253  1  0.84375000  0.96875000  0.46875000  1.0
  Na  Na254  1  0.84375000  0.96875000  0.71875000  1.0
  Na  Na255  1  0.84375000  0.96875000  0.96875000  1.0
  Na  Na256  1  0.15625000  0.15625000  0.15625000  1.0
  Na  Na257  1  0.15625000  0.15625000  0.40625000  1.0
  Na  Na258  1  0.15625000  0.15625000  0.65625000  1.0
  Na  Na259  1  0.15625000  0.15625000  0.90625000  1.0
  Na  Na260  1  0.15625000  0.40625000  0.15625000  1.0
  Na  Na261  1  0.15625000  0.40625000  0.40625000  1.0
  Na  Na262  1  0.15625000  0.40625000  0.65625000  1.0
  Na  Na263  1  0.15625000  0.40625000  0.90625000  1.0
  Na  Na264  1  0.15625000  0.65625000  0.15625000  1.0
  Na  Na265  1  0.15625000  0.65625000  0.40625000  1.0
  Na  Na266  1  0.15625000  0.65625000  0.65625000  1.0
  Na  Na267  1  0.15625000  0.65625000  0.90625000  1.0
  Na  Na268  1  0.15625000  0.90625000  0.15625000  1.0
  Na  Na269  1  0.15625000  0.90625000  0.40625000  1.0
  Na  Na270  1  0.15625000  0.90625000  0.65625000  1.0
  Na  Na271  1  0.15625000  0.90625000  0.90625000  1.0
  Na  Na272  1  0.40625000  0.15625000  0.15625000  1.0
  Na  Na273  1  0.40625000  0.15625000  0.40625000  1.0
  Na  Na274  1  0.40625000  0.15625000  0.65625000  1.0
  Na  Na275  1  0.40625000  0.15625000  0.90625000  1.0
  Na  Na276  1  0.40625000  0.40625000  0.15625000  1.0
  Na  Na277  1  0.40625000  0.40625000  0.40625000  1.0
  Na  Na278  1  0.40625000  0.40625000  0.65625000  1.0
  Na  Na279  1  0.40625000  0.40625000  0.90625000  1.0
  Na  Na280  1  0.40625000  0.65625000  0.15625000  1.0
  Na  Na281  1  0.40625000  0.65625000  0.40625000  1.0
  Na  Na282  1  0.40625000  0.65625000  0.65625000  1.0
  Na  Na283  1  0.40625000  0.65625000  0.90625000  1.0
  Na  Na284  1  0.40625000  0.90625000  0.15625000  1.0
  Na  Na285  1  0.40625000  0.90625000  0.40625000  1.0
  Na  Na286  1  0.40625000  0.90625000  0.65625000  1.0
  Na  Na287  1  0.40625000  0.90625000  0.90625000  1.0
  Na  Na288  1  0.65625000  0.15625000  0.15625000  1.0
  Na  Na289  1  0.65625000  0.15625000  0.40625000  1.0
  Na  Na290  1  0.65625000  0.15625000  0.65625000  1.0
  Na  Na291  1  0.65625000  0.15625000  0.90625000  1.0
  Na  Na292  1  0.65625000  0.40625000  0.15625000  1.0
  Na  Na293  1  0.65625000  0.40625000  0.40625000  1.0
  Na  Na294  1  0.65625000  0.40625000  0.65625000  1.0
  Na  Na295  1  0.65625000  0.40625000  0.90625000  1.0
  Na  Na296  1  0.65625000  0.65625000  0.15625000  1.0
  Na  Na297  1  0.65625000  0.65625000  0.40625000  1.0
  Na  Na298  1  0.65625000  0.65625000  0.65625000  1.0
  Na  Na299  1  0.65625000  0.65625000  0.90625000  1.0
  Na  Na300  1  0.65625000  0.90625000  0.15625000  1.0
  Na  Na301  1  0.65625000  0.90625000  0.40625000  1.0
  Na  Na302  1  0.65625000  0.90625000  0.65625000  1.0
  Na  Na303  1  0.65625000  0.90625000  0.90625000  1.0
  Na  Na304  1  0.90625000  0.15625000  0.15625000  1.0
  Na  Na305  1  0.90625000  0.15625000  0.40625000  1.0
  Na  Na306  1  0.90625000  0.15625000  0.65625000  1.0
  Na  Na307  1  0.90625000  0.15625000  0.90625000  1.0
  Na  Na308  1  0.90625000  0.40625000  0.15625000  1.0
  Na  Na309  1  0.90625000  0.40625000  0.40625000  1.0
  Na  Na310  1  0.90625000  0.40625000  0.65625000  1.0
  Na  Na311  1  0.90625000  0.40625000  0.90625000  1.0
  Na  Na312  1  0.90625000  0.65625000  0.15625000  1.0
  Na  Na313  1  0.90625000  0.65625000  0.40625000  1.0
  Na  Na314  1  0.90625000  0.65625000  0.65625000  1.0
  Na  Na315  1  0.90625000  0.65625000  0.90625000  1.0
  Na  Na316  1  0.90625000  0.90625000  0.15625000  1.0
  Na  Na317  1  0.90625000  0.90625000  0.40625000  1.0
  Na  Na318  1  0.90625000  0.90625000  0.65625000  1.0
  Na  Na319  1  0.90625000  0.90625000  0.90625000  1.0
  Na  Na320  1  0.03125000  0.03125000  0.15625000  1.0
  Na  Na321  1  0.03125000  0.03125000  0.40625000  1.0
  Na  Na322  1  0.03125000  0.03125000  0.65625000  1.0
  Na  Na323  1  0.03125000  0.03125000  0.90625000  1.0
  Na  Na324  1  0.03125000  0.28125000  0.15625000  1.0
  Na  Na325  1  0.03125000  0.28125000  0.40625000  1.0
  Na  Na326  1  0.03125000  0.28125000  0.65625000  1.0
  Na  Na327  1  0.03125000  0.28125000  0.90625000  1.0
  Na  Na328  1  0.03125000  0.53125000  0.15625000  1.0
  Na  Na329  1  0.03125000  0.53125000  0.40625000  1.0
  Na  Na330  1  0.03125000  0.53125000  0.65625000  1.0
  Na  Na331  1  0.03125000  0.53125000  0.90625000  1.0
  Na  Na332  1  0.03125000  0.78125000  0.15625000  1.0
  Na  Na333  1  0.03125000  0.78125000  0.40625000  1.0
  Na  Na334  1  0.03125000  0.78125000  0.65625000  1.0
  Na  Na335  1  0.03125000  0.78125000  0.90625000  1.0
  Na  Na336  1  0.28125000  0.03125000  0.15625000  1.0
  Na  Na337  1  0.28125000  0.03125000  0.40625000  1.0
  Na  Na338  1  0.28125000  0.03125000  0.65625000  1.0
  Na  Na339  1  0.28125000  0.03125000  0.90625000  1.0
  Na  Na340  1  0.28125000  0.28125000  0.15625000  1.0
  Na  Na341  1  0.28125000  0.28125000  0.40625000  1.0
  Na  Na342  1  0.28125000  0.28125000  0.65625000  1.0
  Na  Na343  1  0.28125000  0.28125000  0.90625000  1.0
  Na  Na344  1  0.28125000  0.53125000  0.15625000  1.0
  Na  Na345  1  0.28125000  0.53125000  0.40625000  1.0
  Na  Na346  1  0.28125000  0.53125000  0.65625000  1.0
  Na  Na347  1  0.28125000  0.53125000  0.90625000  1.0
  Na  Na348  1  0.28125000  0.78125000  0.15625000  1.0
  Na  Na349  1  0.28125000  0.78125000  0.40625000  1.0
  Na  Na350  1  0.28125000  0.78125000  0.65625000  1.0
  Na  Na351  1  0.28125000  0.78125000  0.90625000  1.0
  Na  Na352  1  0.53125000  0.03125000  0.15625000  1.0
  Na  Na353  1  0.53125000  0.03125000  0.40625000  1.0
  Na  Na354  1  0.53125000  0.03125000  0.65625000  1.0
  Na  Na355  1  0.53125000  0.03125000  0.90625000  1.0
  Na  Na356  1  0.53125000  0.28125000  0.15625000  1.0
  Na  Na357  1  0.53125000  0.28125000  0.40625000  1.0
  Na  Na358  1  0.53125000  0.28125000  0.65625000  1.0
  Na  Na359  1  0.53125000  0.28125000  0.90625000  1.0
  Na  Na360  1  0.53125000  0.53125000  0.15625000  1.0
  Na  Na361  1  0.53125000  0.53125000  0.40625000  1.0
  Na  Na362  1  0.53125000  0.53125000  0.65625000  1.0
  Na  Na363  1  0.53125000  0.53125000  0.90625000  1.0
  Na  Na364  1  0.53125000  0.78125000  0.15625000  1.0
  Na  Na365  1  0.53125000  0.78125000  0.40625000  1.0
  Na  Na366  1  0.53125000  0.78125000  0.65625000  1.0
  Na  Na367  1  0.53125000  0.78125000  0.90625000  1.0
  Na  Na368  1  0.78125000  0.03125000  0.15625000  1.0
  Na  Na369  1  0.78125000  0.03125000  0.40625000  1.0
  Na  Na370  1  0.78125000  0.03125000  0.65625000  1.0
  Na  Na371  1  0.78125000  0.03125000  0.90625000  1.0
  Na  Na372  1  0.78125000  0.28125000  0.15625000  1.0
  Na  Na373  1  0.78125000  0.28125000  0.40625000  1.0
  Na  Na374  1  0.78125000  0.28125000  0.65625000  1.0
  Na  Na375  1  0.78125000  0.28125000  0.90625000  1.0
  Na  Na376  1  0.78125000  0.53125000  0.15625000  1.0
  Na  Na377  1  0.78125000  0.53125000  0.40625000  1.0
  Na  Na378  1  0.78125000  0.53125000  0.65625000  1.0
  Na  Na379  1  0.78125000  0.53125000  0.90625000  1.0
  Na  Na380  1  0.78125000  0.78125000  0.15625000  1.0
  Na  Na381  1  0.78125000  0.78125000  0.40625000  1.0
  Na  Na382  1  0.78125000  0.78125000  0.65625000  1.0
  Na  Na383  1  0.78125000  0.78125000  0.90625000  1.0
  Na  Na384  1  0.03125000  0.15625000  0.03125000  1.0
  Na  Na385  1  0.03125000  0.15625000  0.28125000  1.0
  Na  Na386  1  0.03125000  0.15625000  0.53125000  1.0
  Na  Na387  1  0.03125000  0.15625000  0.78125000  1.0
  Na  Na388  1  0.03125000  0.40625000  0.03125000  1.0
  Na  Na389  1  0.03125000  0.40625000  0.28125000  1.0
  Na  Na390  1  0.03125000  0.40625000  0.53125000  1.0
  Na  Na391  1  0.03125000  0.40625000  0.78125000  1.0
  Na  Na392  1  0.03125000  0.65625000  0.03125000  1.0
  Na  Na393  1  0.03125000  0.65625000  0.28125000  1.0
  Na  Na394  1  0.03125000  0.65625000  0.53125000  1.0
  Na  Na395  1  0.03125000  0.65625000  0.78125000  1.0
  Na  Na396  1  0.03125000  0.90625000  0.03125000  1.0
  Na  Na397  1  0.03125000  0.90625000  0.28125000  1.0
  Na  Na398  1  0.03125000  0.90625000  0.53125000  1.0
  Na  Na399  1  0.03125000  0.90625000  0.78125000  1.0
  Na  Na400  1  0.28125000  0.15625000  0.03125000  1.0
  Na  Na401  1  0.28125000  0.15625000  0.28125000  1.0
  Na  Na402  1  0.28125000  0.15625000  0.53125000  1.0
  Na  Na403  1  0.28125000  0.15625000  0.78125000  1.0
  Na  Na404  1  0.28125000  0.40625000  0.03125000  1.0
  Na  Na405  1  0.28125000  0.40625000  0.28125000  1.0
  Na  Na406  1  0.28125000  0.40625000  0.53125000  1.0
  Na  Na407  1  0.28125000  0.40625000  0.78125000  1.0
  Na  Na408  1  0.28125000  0.65625000  0.03125000  1.0
  Na  Na409  1  0.28125000  0.65625000  0.28125000  1.0
  Na  Na410  1  0.28125000  0.65625000  0.53125000  1.0
  Na  Na411  1  0.28125000  0.65625000  0.78125000  1.0
  Na  Na412  1  0.28125000  0.90625000  0.03125000  1.0
  Na  Na413  1  0.28125000  0.90625000  0.28125000  1.0
  Na  Na414  1  0.28125000  0.90625000  0.53125000  1.0
  Na  Na415  1  0.28125000  0.90625000  0.78125000  1.0
  Na  Na416  1  0.53125000  0.15625000  0.03125000  1.0
  Na  Na417  1  0.53125000  0.15625000  0.28125000  1.0
  Na  Na418  1  0.53125000  0.15625000  0.53125000  1.0
  Na  Na419  1  0.53125000  0.15625000  0.78125000  1.0
  Na  Na420  1  0.53125000  0.40625000  0.03125000  1.0
  Na  Na421  1  0.53125000  0.40625000  0.28125000  1.0
  Na  Na422  1  0.53125000  0.40625000  0.53125000  1.0
  Na  Na423  1  0.53125000  0.40625000  0.78125000  1.0
  Na  Na424  1  0.53125000  0.65625000  0.03125000  1.0
  Na  Na425  1  0.53125000  0.65625000  0.28125000  1.0
  Na  Na426  1  0.53125000  0.65625000  0.53125000  1.0
  Na  Na427  1  0.53125000  0.65625000  0.78125000  1.0
  Na  Na428  1  0.53125000  0.90625000  0.03125000  1.0
  Na  Na429  1  0.53125000  0.90625000  0.28125000  1.0
  Na  Na430  1  0.53125000  0.90625000  0.53125000  1.0
  Na  Na431  1  0.53125000  0.90625000  0.78125000  1.0
  Na  Na432  1  0.78125000  0.15625000  0.03125000  1.0
  Na  Na433  1  0.78125000  0.15625000  0.28125000  1.0
  Na  Na434  1  0.78125000  0.15625000  0.53125000  1.0
  Na  Na435  1  0.78125000  0.15625000  0.78125000  1.0
  Na  Na436  1  0.78125000  0.40625000  0.03125000  1.0
  Na  Na437  1  0.78125000  0.40625000  0.28125000  1.0
  Na  Na438  1  0.78125000  0.40625000  0.53125000  1.0
  Na  Na439  1  0.78125000  0.40625000  0.78125000  1.0
  Na  Na440  1  0.78125000  0.65625000  0.03125000  1.0
  Na  Na441  1  0.78125000  0.65625000  0.28125000  1.0
  Na  Na442  1  0.78125000  0.65625000  0.53125000  1.0
  Na  Na443  1  0.78125000  0.65625000  0.78125000  1.0
  Na  Na444  1  0.78125000  0.90625000  0.03125000  1.0
  Na  Na445  1  0.78125000  0.90625000  0.28125000  1.0
  Na  Na446  1  0.78125000  0.90625000  0.53125000  1.0
  Na  Na447  1  0.78125000  0.90625000  0.78125000  1.0
  Na  Na448  1  0.15625000  0.03125000  0.03125000  1.0
  Na  Na449  1  0.15625000  0.03125000  0.28125000  1.0
  Na  Na450  1  0.15625000  0.03125000  0.53125000  1.0
  Na  Na451  1  0.15625000  0.03125000  0.78125000  1.0
  Na  Na452  1  0.15625000  0.28125000  0.03125000  1.0
  Na  Na453  1  0.15625000  0.28125000  0.28125000  1.0
  Na  Na454  1  0.15625000  0.28125000  0.53125000  1.0
  Na  Na455  1  0.15625000  0.28125000  0.78125000  1.0
  Na  Na456  1  0.15625000  0.53125000  0.03125000  1.0
  Na  Na457  1  0.15625000  0.53125000  0.28125000  1.0
  Na  Na458  1  0.15625000  0.53125000  0.53125000  1.0
  Na  Na459  1  0.15625000  0.53125000  0.78125000  1.0
  Na  Na460  1  0.15625000  0.78125000  0.03125000  1.0
  Na  Na461  1  0.15625000  0.78125000  0.28125000  1.0
  Na  Na462  1  0.15625000  0.78125000  0.53125000  1.0
  Na  Na463  1  0.15625000  0.78125000  0.78125000  1.0
  Na  Na464  1  0.40625000  0.03125000  0.03125000  1.0
  Na  Na465  1  0.40625000  0.03125000  0.28125000  1.0
  Na  Na466  1  0.40625000  0.03125000  0.53125000  1.0
  Na  Na467  1  0.40625000  0.03125000  0.78125000  1.0
  Na  Na468  1  0.40625000  0.28125000  0.03125000  1.0
  Na  Na469  1  0.40625000  0.28125000  0.28125000  1.0
  Na  Na470  1  0.40625000  0.28125000  0.53125000  1.0
  Na  Na471  1  0.40625000  0.28125000  0.78125000  1.0
  Na  Na472  1  0.40625000  0.53125000  0.03125000  1.0
  Na  Na473  1  0.40625000  0.53125000  0.28125000  1.0
  Na  Na474  1  0.40625000  0.53125000  0.53125000  1.0
  Na  Na475  1  0.40625000  0.53125000  0.78125000  1.0
  Na  Na476  1  0.40625000  0.78125000  0.03125000  1.0
  Na  Na477  1  0.40625000  0.78125000  0.28125000  1.0
  Na  Na478  1  0.40625000  0.78125000  0.53125000  1.0
  Na  Na479  1  0.40625000  0.78125000  0.78125000  1.0
  Na  Na480  1  0.65625000  0.03125000  0.03125000  1.0
  Na  Na481  1  0.65625000  0.03125000  0.28125000  1.0
  Na  Na482  1  0.65625000  0.03125000  0.53125000  1.0
  Na  Na483  1  0.65625000  0.03125000  0.78125000  1.0
  Na  Na484  1  0.65625000  0.28125000  0.03125000  1.0
  Na  Na485  1  0.65625000  0.28125000  0.28125000  1.0
  Na  Na486  1  0.65625000  0.28125000  0.53125000  1.0
  Na  Na487  1  0.65625000  0.28125000  0.78125000  1.0
  Na  Na488  1  0.65625000  0.53125000  0.03125000  1.0
  Na  Na489  1  0.65625000  0.53125000  0.28125000  1.0
  Na  Na490  1  0.65625000  0.53125000  0.53125000  1.0
  Na  Na491  1  0.65625000  0.53125000  0.78125000  1.0
  Na  Na492  1  0.65625000  0.78125000  0.03125000  1.0
  Na  Na493  1  0.65625000  0.78125000  0.28125000  1.0
  Na  Na494  1  0.65625000  0.78125000  0.53125000  1.0
  Na  Na495  1  0.65625000  0.78125000  0.78125000  1.0
  Na  Na496  1  0.90625000  0.03125000  0.03125000  1.0
  Na  Na497  1  0.90625000  0.03125000  0.28125000  1.0
  Na  Na498  1  0.90625000  0.03125000  0.53125000  1.0
  Na  Na499  1  0.90625000  0.03125000  0.78125000  1.0
  Na  Na500  1  0.90625000  0.28125000  0.03125000  1.0
  Na  Na501  1  0.90625000  0.28125000  0.28125000  1.0
  Na  Na502  1  0.90625000  0.28125000  0.53125000  1.0
  Na  Na503  1  0.90625000  0.28125000  0.78125000  1.0
  Na  Na504  1  0.90625000  0.53125000  0.03125000  1.0
  Na  Na505  1  0.90625000  0.53125000  0.28125000  1.0
  Na  Na506  1  0.90625000  0.53125000  0.53125000  1.0
  Na  Na507  1  0.90625000  0.53125000  0.78125000  1.0
  Na  Na508  1  0.90625000  0.78125000  0.03125000  1.0
  Na  Na509  1  0.90625000  0.78125000  0.28125000  1.0
  Na  Na510  1  0.90625000  0.78125000  0.53125000  1.0
  Na  Na511  1  0.90625000  0.78125000  0.78125000  1.0
  Ca  Ca512  1  0.21875000  0.21875000  0.21875000  1.0
  Ca  Ca513  1  0.21875000  0.21875000  0.46875000  1.0
  Ca  Ca514  1  0.21875000  0.21875000  0.71875000  1.0
  Ca  Ca515  1  0.21875000  0.21875000  0.96875000  1.0
  Ca  Ca516  1  0.21875000  0.46875000  0.21875000  1.0
  Ca  Ca517  1  0.21875000  0.46875000  0.46875000  1.0
  Ca  Ca518  1  0.21875000  0.46875000  0.71875000  1.0
  Ca  Ca519  1  0.21875000  0.46875000  0.96875000  1.0
  Ca  Ca520  1  0.21875000  0.71875000  0.21875000  1.0
  Ca  Ca521  1  0.21875000  0.71875000  0.46875000  1.0
  Ca  Ca522  1  0.21875000  0.71875000  0.71875000  1.0
  Ca  Ca523  1  0.21875000  0.71875000  0.96875000  1.0
  Ca  Ca524  1  0.21875000  0.96875000  0.21875000  1.0
  Ca  Ca525  1  0.21875000  0.96875000  0.46875000  1.0
  Ca  Ca526  1  0.21875000  0.96875000  0.71875000  1.0
  Ca  Ca527  1  0.21875000  0.96875000  0.96875000  1.0
  Ca  Ca528  1  0.46875000  0.21875000  0.21875000  1.0
  Ca  Ca529  1  0.46875000  0.21875000  0.46875000  1.0
  Ca  Ca530  1  0.46875000  0.21875000  0.71875000  1.0
  Ca  Ca531  1  0.46875000  0.21875000  0.96875000  1.0
  Ca  Ca532  1  0.46875000  0.46875000  0.21875000  1.0
  Ca  Ca533  1  0.46875000  0.46875000  0.46875000  1.0
  Ca  Ca534  1  0.46875000  0.46875000  0.71875000  1.0
  Ca  Ca535  1  0.46875000  0.46875000  0.96875000  1.0
  Ca  Ca536  1  0.46875000  0.71875000  0.21875000  1.0
  Ca  Ca537  1  0.46875000  0.71875000  0.46875000  1.0
  Ca  Ca538  1  0.46875000  0.71875000  0.71875000  1.0
  Ca  Ca539  1  0.46875000  0.71875000  0.96875000  1.0
  Ca  Ca540  1  0.46875000  0.96875000  0.21875000  1.0
  Ca  Ca541  1  0.46875000  0.96875000  0.46875000  1.0
  Ca  Ca542  1  0.46875000  0.96875000  0.71875000  1.0
  Ca  Ca543  1  0.46875000  0.96875000  0.96875000  1.0
  Ca  Ca544  1  0.71875000  0.21875000  0.21875000  1.0
  Ca  Ca545  1  0.71875000  0.21875000  0.46875000  1.0
  Ca  Ca546  1  0.71875000  0.21875000  0.71875000  1.0
  Ca  Ca547  1  0.71875000  0.21875000  0.96875000  1.0
  Ca  Ca548  1  0.71875000  0.46875000  0.21875000  1.0
  Ca  Ca549  1  0.71875000  0.46875000  0.46875000  1.0
  Ca  Ca550  1  0.71875000  0.46875000  0.71875000  1.0
  Ca  Ca551  1  0.71875000  0.46875000  0.96875000  1.0
  Ca  Ca552  1  0.71875000  0.71875000  0.21875000  1.0
  Ca  Ca553  1  0.71875000  0.71875000  0.46875000  1.0
  Ca  Ca554  1  0.71875000  0.71875000  0.71875000  1.0
  Ca  Ca555  1  0.71875000  0.71875000  0.96875000  1.0
  Ca  Ca556  1  0.71875000  0.96875000  0.21875000  1.0
  Ca  Ca557  1  0.71875000  0.96875000  0.46875000  1.0
  Ca  Ca558  1  0.71875000  0.96875000  0.71875000  1.0
  Ca  Ca559  1  0.71875000  0.96875000  0.96875000  1.0
  Ca  Ca560  1  0.96875000  0.21875000  0.21875000  1.0
  Ca  Ca561  1  0.96875000  0.21875000  0.46875000  1.0
  Ca  Ca562  1  0.96875000  0.21875000  0.71875000  1.0
  Ca  Ca563  1  0.96875000  0.21875000  0.96875000  1.0
  Ca  Ca564  1  0.96875000  0.46875000  0.21875000  1.0
  Ca  Ca565  1  0.96875000  0.46875000  0.46875000  1.0
  Ca  Ca566  1  0.96875000  0.46875000  0.71875000  1.0
  Ca  Ca567  1  0.96875000  0.46875000  0.96875000  1.0
  Ca  Ca568  1  0.96875000  0.71875000  0.21875000  1.0
  Ca  Ca569  1  0.96875000  0.71875000  0.46875000  1.0
  Ca  Ca570  1  0.96875000  0.71875000  0.71875000  1.0
  Ca  Ca571  1  0.96875000  0.71875000  0.96875000  1.0
  Ca  Ca572  1  0.96875000  0.96875000  0.21875000  1.0
  Ca  Ca573  1  0.96875000  0.96875000  0.46875000  1.0
  Ca  Ca574  1  0.96875000  0.96875000  0.71875000  1.0
  Ca  Ca575  1  0.96875000  0.96875000  0.96875000  1.0
  Ca  Ca576  1  0.09375000  0.09375000  0.21875000  1.0
  Ca  Ca577  1  0.09375000  0.09375000  0.46875000  1.0
  Ca  Ca578  1  0.09375000  0.09375000  0.71875000  1.0
  Ca  Ca579  1  0.09375000  0.09375000  0.96875000  1.0
  Ca  Ca580  1  0.09375000  0.34375000  0.21875000  1.0
  Ca  Ca581  1  0.09375000  0.34375000  0.46875000  1.0
  Ca  Ca582  1  0.09375000  0.34375000  0.71875000  1.0
  Ca  Ca583  1  0.09375000  0.34375000  0.96875000  1.0
  Ca  Ca584  1  0.09375000  0.59375000  0.21875000  1.0
  Ca  Ca585  1  0.09375000  0.59375000  0.46875000  1.0
  Ca  Ca586  1  0.09375000  0.59375000  0.71875000  1.0
  Ca  Ca587  1  0.09375000  0.59375000  0.96875000  1.0
  Ca  Ca588  1  0.09375000  0.84375000  0.21875000  1.0
  Ca  Ca589  1  0.09375000  0.84375000  0.46875000  1.0
  Ca  Ca590  1  0.09375000  0.84375000  0.71875000  1.0
  Ca  Ca591  1  0.09375000  0.84375000  0.96875000  1.0
  Ca  Ca592  1  0.34375000  0.09375000  0.21875000  1.0
  Ca  Ca593  1  0.34375000  0.09375000  0.46875000  1.0
  Ca  Ca594  1  0.34375000  0.09375000  0.71875000  1.0
  Ca  Ca595  1  0.34375000  0.09375000  0.96875000  1.0
  Ca  Ca596  1  0.34375000  0.34375000  0.21875000  1.0
  Ca  Ca597  1  0.34375000  0.34375000  0.46875000  1.0
  Ca  Ca598  1  0.34375000  0.34375000  0.71875000  1.0
  Ca  Ca599  1  0.34375000  0.34375000  0.96875000  1.0
  Ca  Ca600  1  0.34375000  0.59375000  0.21875000  1.0
  Ca  Ca601  1  0.34375000  0.59375000  0.46875000  1.0
  Ca  Ca602  1  0.34375000  0.59375000  0.71875000  1.0
  Ca  Ca603  1  0.34375000  0.59375000  0.96875000  1.0
  Ca  Ca604  1  0.34375000  0.84375000  0.21875000  1.0
  Ca  Ca605  1  0.34375000  0.84375000  0.46875000  1.0
  Ca  Ca606  1  0.34375000  0.84375000  0.71875000  1.0
  Ca  Ca607  1  0.34375000  0.84375000  0.96875000  1.0
  Ca  Ca608  1  0.59375000  0.09375000  0.21875000  1.0
  Ca  Ca609  1  0.59375000  0.09375000  0.46875000  1.0
  Ca  Ca610  1  0.59375000  0.09375000  0.71875000  1.0
  Ca  Ca611  1  0.59375000  0.09375000  0.96875000  1.0
  Ca  Ca612  1  0.59375000  0.34375000  0.21875000  1.0
  Ca  Ca613  1  0.59375000  0.34375000  0.46875000  1.0
  Ca  Ca614  1  0.59375000  0.34375000  0.71875000  1.0
  Ca  Ca615  1  0.59375000  0.34375000  0.96875000  1.0
  Ca  Ca616  1  0.59375000  0.59375000  0.21875000  1.0
  Ca  Ca617  1  0.59375000  0.59375000  0.46875000  1.0
  Ca  Ca618  1  0.59375000  0.59375000  0.71875000  1.0
  Ca  Ca619  1  0.59375000  0.59375000  0.96875000  1.0
  Ca  Ca620  1  0.59375000  0.84375000  0.21875000  1.0
  Ca  Ca621  1  0.59375000  0.84375000  0.46875000  1.0
  Ca  Ca622  1  0.59375000  0.84375000  0.71875000  1.0
  Ca  Ca623  1  0.59375000  0.84375000  0.96875000  1.0
  Ca  Ca624  1  0.84375000  0.09375000  0.21875000  1.0
  Ca  Ca625  1  0.84375000  0.09375000  0.46875000  1.0
  Ca  Ca626  1  0.84375000  0.09375000  0.71875000  1.0
  Ca  Ca627  1  0.84375000  0.09375000  0.96875000  1.0
  Ca  Ca628  1  0.84375000  0.34375000  0.21875000  1.0
  Ca  Ca629  1  0.84375000  0.34375000  0.46875000  1.0
  Ca  Ca630  1  0.84375000  0.34375000  0.71875000  1.0
  Ca  Ca631  1  0.84375000  0.34375000  0.96875000  1.0
  Ca  Ca632  1  0.84375000  0.59375000  0.21875000  1.0
  Ca  Ca633  1  0.84375000  0.59375000  0.46875000  1.0
  Ca  Ca634  1  0.84375000  0.59375000  0.71875000  1.0
  Ca  Ca635  1  0.84375000  0.59375000  0.96875000  1.0
  Ca  Ca636  1  0.84375000  0.84375000  0.21875000  1.0
  Ca  Ca637  1  0.84375000  0.84375000  0.46875000  1.0
  Ca  Ca638  1  0.84375000  0.84375000  0.71875000  1.0
  Ca  Ca639  1  0.84375000  0.84375000  0.96875000  1.0
  Ca  Ca640  1  0.09375000  0.21875000  0.09375000  1.0
  Ca  Ca641  1  0.09375000  0.21875000  0.34375000  1.0
  Ca  Ca642  1  0.09375000  0.21875000  0.59375000  1.0
  Ca  Ca643  1  0.09375000  0.21875000  0.84375000  1.0
  Ca  Ca644  1  0.09375000  0.46875000  0.09375000  1.0
  Ca  Ca645  1  0.09375000  0.46875000  0.34375000  1.0
  Ca  Ca646  1  0.09375000  0.46875000  0.59375000  1.0
  Ca  Ca647  1  0.09375000  0.46875000  0.84375000  1.0
  Ca  Ca648  1  0.09375000  0.71875000  0.09375000  1.0
  Ca  Ca649  1  0.09375000  0.71875000  0.34375000  1.0
  Ca  Ca650  1  0.09375000  0.71875000  0.59375000  1.0
  Ca  Ca651  1  0.09375000  0.71875000  0.84375000  1.0
  Ca  Ca652  1  0.09375000  0.96875000  0.09375000  1.0
  Ca  Ca653  1  0.09375000  0.96875000  0.34375000  1.0
  Ca  Ca654  1  0.09375000  0.96875000  0.59375000  1.0
  Ca  Ca655  1  0.09375000  0.96875000  0.84375000  1.0
  Ca  Ca656  1  0.34375000  0.21875000  0.09375000  1.0
  Ca  Ca657  1  0.34375000  0.21875000  0.34375000  1.0
  Ca  Ca658  1  0.34375000  0.21875000  0.59375000  1.0
  Ca  Ca659  1  0.34375000  0.21875000  0.84375000  1.0
  Ca  Ca660  1  0.34375000  0.46875000  0.09375000  1.0
  Ca  Ca661  1  0.34375000  0.46875000  0.34375000  1.0
  Ca  Ca662  1  0.34375000  0.46875000  0.59375000  1.0
  Ca  Ca663  1  0.34375000  0.46875000  0.84375000  1.0
  Ca  Ca664  1  0.34375000  0.71875000  0.09375000  1.0
  Ca  Ca665  1  0.34375000  0.71875000  0.34375000  1.0
  Ca  Ca666  1  0.34375000  0.71875000  0.59375000  1.0
  Ca  Ca667  1  0.34375000  0.71875000  0.84375000  1.0
  Ca  Ca668  1  0.34375000  0.96875000  0.09375000  1.0
  Ca  Ca669  1  0.34375000  0.96875000  0.34375000  1.0
  Ca  Ca670  1  0.34375000  0.96875000  0.59375000  1.0
  Ca  Ca671  1  0.34375000  0.96875000  0.84375000  1.0
  Ca  Ca672  1  0.59375000  0.21875000  0.09375000  1.0
  Ca  Ca673  1  0.59375000  0.21875000  0.34375000  1.0
  Ca  Ca674  1  0.59375000  0.21875000  0.59375000  1.0
  Ca  Ca675  1  0.59375000  0.21875000  0.84375000  1.0
  Ca  Ca676  1  0.59375000  0.46875000  0.09375000  1.0
  Ca  Ca677  1  0.59375000  0.46875000  0.34375000  1.0
  Ca  Ca678  1  0.59375000  0.46875000  0.59375000  1.0
  Ca  Ca679  1  0.59375000  0.46875000  0.84375000  1.0
  Ca  Ca680  1  0.59375000  0.71875000  0.09375000  1.0
  Ca  Ca681  1  0.59375000  0.71875000  0.34375000  1.0
  Ca  Ca682  1  0.59375000  0.71875000  0.59375000  1.0
  Ca  Ca683  1  0.59375000  0.71875000  0.84375000  1.0
  Ca  Ca684  1  0.59375000  0.96875000  0.09375000  1.0
  Ca  Ca685  1  0.59375000  0.96875000  0.34375000  1.0
  Ca  Ca686  1  0.59375000  0.96875000  0.59375000  1.0
  Ca  Ca687  1  0.59375000  0.96875000  0.84375000  1.0
  Ca  Ca688  1  0.84375000  0.21875000  0.09375000  1.0
  Ca  Ca689  1  0.84375000  0.21875000  0.34375000  1.0
  Ca  Ca690  1  0.84375000  0.21875000  0.59375000  1.0
  Ca  Ca691  1  0.84375000  0.21875000  0.84375000  1.0
  Ca  Ca692  1  0.84375000  0.46875000  0.09375000  1.0
  Ca  Ca693  1  0.84375000  0.46875000  0.34375000  1.0
  Ca  Ca694  1  0.84375000  0.46875000  0.59375000  1.0
  Ca  Ca695  1  0.84375000  0.46875000  0.84375000  1.0
  Ca  Ca696  1  0.84375000  0.71875000  0.09375000  1.0
  Ca  Ca697  1  0.84375000  0.71875000  0.34375000  1.0
  Ca  Ca698  1  0.84375000  0.71875000  0.59375000  1.0
  Ca  Ca699  1  0.84375000  0.71875000  0.84375000  1.0
  Ca  Ca700  1  0.84375000  0.96875000  0.09375000  1.0
  Ca  Ca701  1  0.84375000  0.96875000  0.34375000  1.0
  Ca  Ca702  1  0.84375000  0.96875000  0.59375000  1.0
  Ca  Ca703  1  0.84375000  0.96875000  0.84375000  1.0
  Ca  Ca704  1  0.21875000  0.09375000  0.09375000  1.0
  Ca  Ca705  1  0.21875000  0.09375000  0.34375000  1.0
  Ca  Ca706  1  0.21875000  0.09375000  0.59375000  1.0
  Ca  Ca707  1  0.21875000  0.09375000  0.84375000  1.0
  Ca  Ca708  1  0.21875000  0.34375000  0.09375000  1.0
  Ca  Ca709  1  0.21875000  0.34375000  0.34375000  1.0
  Ca  Ca710  1  0.21875000  0.34375000  0.59375000  1.0
  Ca  Ca711  1  0.21875000  0.34375000  0.84375000  1.0
  Ca  Ca712  1  0.21875000  0.59375000  0.09375000  1.0
  Ca  Ca713  1  0.21875000  0.59375000  0.34375000  1.0
  Ca  Ca714  1  0.21875000  0.59375000  0.59375000  1.0
  Ca  Ca715  1  0.21875000  0.59375000  0.84375000  1.0
  Ca  Ca716  1  0.21875000  0.84375000  0.09375000  1.0
  Ca  Ca717  1  0.21875000  0.84375000  0.34375000  1.0
  Ca  Ca718  1  0.21875000  0.84375000  0.59375000  1.0
  Ca  Ca719  1  0.21875000  0.84375000  0.84375000  1.0
  Ca  Ca720  1  0.46875000  0.09375000  0.09375000  1.0
  Ca  Ca721  1  0.46875000  0.09375000  0.34375000  1.0
  Ca  Ca722  1  0.46875000  0.09375000  0.59375000  1.0
  Ca  Ca723  1  0.46875000  0.09375000  0.84375000  1.0
  Ca  Ca724  1  0.46875000  0.34375000  0.09375000  1.0
  Ca  Ca725  1  0.46875000  0.34375000  0.34375000  1.0
  Ca  Ca726  1  0.46875000  0.34375000  0.59375000  1.0
  Ca  Ca727  1  0.46875000  0.34375000  0.84375000  1.0
  Ca  Ca728  1  0.46875000  0.59375000  0.09375000  1.0
  Ca  Ca729  1  0.46875000  0.59375000  0.34375000  1.0
  Ca  Ca730  1  0.46875000  0.59375000  0.59375000  1.0
  Ca  Ca731  1  0.46875000  0.59375000  0.84375000  1.0
  Ca  Ca732  1  0.46875000  0.84375000  0.09375000  1.0
  Ca  Ca733  1  0.46875000  0.84375000  0.34375000  1.0
  Ca  Ca734  1  0.46875000  0.84375000  0.59375000  1.0
  Ca  Ca735  1  0.46875000  0.84375000  0.84375000  1.0
  Ca  Ca736  1  0.71875000  0.09375000  0.09375000  1.0
  Ca  Ca737  1  0.71875000  0.09375000  0.34375000  1.0
  Ca  Ca738  1  0.71875000  0.09375000  0.59375000  1.0
  Ca  Ca739  1  0.71875000  0.09375000  0.84375000  1.0
  Ca  Ca740  1  0.71875000  0.34375000  0.09375000  1.0
  Ca  Ca741  1  0.71875000  0.34375000  0.34375000  1.0
  Ca  Ca742  1  0.71875000  0.34375000  0.59375000  1.0
  Ca  Ca743  1  0.71875000  0.34375000  0.84375000  1.0
  Ca  Ca744  1  0.71875000  0.59375000  0.09375000  1.0
  Ca  Ca745  1  0.71875000  0.59375000  0.34375000  1.0
  Ca  Ca746  1  0.71875000  0.59375000  0.59375000  1.0
  Ca  Ca747  1  0.71875000  0.59375000  0.84375000  1.0
  Ca  Ca748  1  0.71875000  0.84375000  0.09375000  1.0
  Ca  Ca749  1  0.71875000  0.84375000  0.34375000  1.0
  Ca  Ca750  1  0.71875000  0.84375000  0.59375000  1.0
  Ca  Ca751  1  0.71875000  0.84375000  0.84375000  1.0
  Ca  Ca752  1  0.96875000  0.09375000  0.09375000  1.0
  Ca  Ca753  1  0.96875000  0.09375000  0.34375000  1.0
  Ca  Ca754  1  0.96875000  0.09375000  0.59375000  1.0
  Ca  Ca755  1  0.96875000  0.09375000  0.84375000  1.0
  Ca  Ca756  1  0.96875000  0.34375000  0.09375000  1.0
  Ca  Ca757  1  0.96875000  0.34375000  0.34375000  1.0
  Ca  Ca758  1  0.96875000  0.34375000  0.59375000  1.0
  Ca  Ca759  1  0.96875000  0.34375000  0.84375000  1.0
  Ca  Ca760  1  0.96875000  0.59375000  0.09375000  1.0
  Ca  Ca761  1  0.96875000  0.59375000  0.34375000  1.0
  Ca  Ca762  1  0.96875000  0.59375000  0.59375000  1.0
  Ca  Ca763  1  0.96875000  0.59375000  0.84375000  1.0
  Ca  Ca764  1  0.96875000  0.84375000  0.09375000  1.0
  Ca  Ca765  1  0.96875000  0.84375000  0.34375000  1.0
  Ca  Ca766  1  0.96875000  0.84375000  0.59375000  1.0
  Ca  Ca767  1  0.96875000  0.84375000  0.84375000  1.0
  Ca  Ca768  1  0.03125000  0.03125000  0.03125000  1.0
  Ca  Ca769  1  0.03125000  0.03125000  0.28125000  1.0
  Ca  Ca770  1  0.03125000  0.03125000  0.53125000  1.0
  Ca  Ca771  1  0.03125000  0.03125000  0.78125000  1.0
  Ca  Ca772  1  0.03125000  0.28125000  0.03125000  1.0
  Ca  Ca773  1  0.03125000  0.28125000  0.28125000  1.0
  Ca  Ca774  1  0.03125000  0.28125000  0.53125000  1.0
  Ca  Ca775  1  0.03125000  0.28125000  0.78125000  1.0
  Ca  Ca776  1  0.03125000  0.53125000  0.03125000  1.0
  Ca  Ca777  1  0.03125000  0.53125000  0.28125000  1.0
  Ca  Ca778  1  0.03125000  0.53125000  0.53125000  1.0
  Ca  Ca779  1  0.03125000  0.53125000  0.78125000  1.0
  Ca  Ca780  1  0.03125000  0.78125000  0.03125000  1.0
  Ca  Ca781  1  0.03125000  0.78125000  0.28125000  1.0
  Ca  Ca782  1  0.03125000  0.78125000  0.53125000  1.0
  Ca  Ca783  1  0.03125000  0.78125000  0.78125000  1.0
  Ca  Ca784  1  0.28125000  0.03125000  0.03125000  1.0
  Ca  Ca785  1  0.28125000  0.03125000  0.28125000  1.0
  Ca  Ca786  1  0.28125000  0.03125000  0.53125000  1.0
  Ca  Ca787  1  0.28125000  0.03125000  0.78125000  1.0
  Ca  Ca788  1  0.28125000  0.28125000  0.03125000  1.0
  Ca  Ca789  1  0.28125000  0.28125000  0.28125000  1.0
  Ca  Ca790  1  0.28125000  0.28125000  0.53125000  1.0
  Ca  Ca791  1  0.28125000  0.28125000  0.78125000  1.0
  Ca  Ca792  1  0.28125000  0.53125000  0.03125000  1.0
  Ca  Ca793  1  0.28125000  0.53125000  0.28125000  1.0
  Ca  Ca794  1  0.28125000  0.53125000  0.53125000  1.0
  Ca  Ca795  1  0.28125000  0.53125000  0.78125000  1.0
  Ca  Ca796  1  0.28125000  0.78125000  0.03125000  1.0
  Ca  Ca797  1  0.28125000  0.78125000  0.28125000  1.0
  Ca  Ca798  1  0.28125000  0.78125000  0.53125000  1.0
  Ca  Ca799  1  0.28125000  0.78125000  0.78125000  1.0
  Ca  Ca800  1  0.53125000  0.03125000  0.03125000  1.0
  Ca  Ca801  1  0.53125000  0.03125000  0.28125000  1.0
  Ca  Ca802  1  0.53125000  0.03125000  0.53125000  1.0
  Ca  Ca803  1  0.53125000  0.03125000  0.78125000  1.0
  Ca  Ca804  1  0.53125000  0.28125000  0.03125000  1.0
  Ca  Ca805  1  0.53125000  0.28125000  0.28125000  1.0
  Ca  Ca806  1  0.53125000  0.28125000  0.53125000  1.0
  Ca  Ca807  1  0.53125000  0.28125000  0.78125000  1.0
  Ca  Ca808  1  0.53125000  0.53125000  0.03125000  1.0
  Ca  Ca809  1  0.53125000  0.53125000  0.28125000  1.0
  Ca  Ca810  1  0.53125000  0.53125000  0.53125000  1.0
  Ca  Ca811  1  0.53125000  0.53125000  0.78125000  1.0
  Ca  Ca812  1  0.53125000  0.78125000  0.03125000  1.0
  Ca  Ca813  1  0.53125000  0.78125000  0.28125000  1.0
  Ca  Ca814  1  0.53125000  0.78125000  0.53125000  1.0
  Ca  Ca815  1  0.53125000  0.78125000  0.78125000  1.0
  Ca  Ca816  1  0.78125000  0.03125000  0.03125000  1.0
  Ca  Ca817  1  0.78125000  0.03125000  0.28125000  1.0
  Ca  Ca818  1  0.78125000  0.03125000  0.53125000  1.0
  Ca  Ca819  1  0.78125000  0.03125000  0.78125000  1.0
  Ca  Ca820  1  0.78125000  0.28125000  0.03125000  1.0
  Ca  Ca821  1  0.78125000  0.28125000  0.28125000  1.0
  Ca  Ca822  1  0.78125000  0.28125000  0.53125000  1.0
  Ca  Ca823  1  0.78125000  0.28125000  0.78125000  1.0
  Ca  Ca824  1  0.78125000  0.53125000  0.03125000  1.0
  Ca  Ca825  1  0.78125000  0.53125000  0.28125000  1.0
  Ca  Ca826  1  0.78125000  0.53125000  0.53125000  1.0
  Ca  Ca827  1  0.78125000  0.53125000  0.78125000  1.0
  Ca  Ca828  1  0.78125000  0.78125000  0.03125000  1.0
  Ca  Ca829  1  0.78125000  0.78125000  0.28125000  1.0
  Ca  Ca830  1  0.78125000  0.78125000  0.53125000  1.0
  Ca  Ca831  1  0.78125000  0.78125000  0.78125000  1.0
  Ca  Ca832  1  0.15625000  0.15625000  0.03125000  1.0
  Ca  Ca833  1  0.15625000  0.15625000  0.28125000  1.0
  Ca  Ca834  1  0.15625000  0.15625000  0.53125000  1.0
  Ca  Ca835  1  0.15625000  0.15625000  0.78125000  1.0
  Ca  Ca836  1  0.15625000  0.40625000  0.03125000  1.0
  Ca  Ca837  1  0.15625000  0.40625000  0.28125000  1.0
  Ca  Ca838  1  0.15625000  0.40625000  0.53125000  1.0
  Ca  Ca839  1  0.15625000  0.40625000  0.78125000  1.0
  Ca  Ca840  1  0.15625000  0.65625000  0.03125000  1.0
  Ca  Ca841  1  0.15625000  0.65625000  0.28125000  1.0
  Ca  Ca842  1  0.15625000  0.65625000  0.53125000  1.0
  Ca  Ca843  1  0.15625000  0.65625000  0.78125000  1.0
  Ca  Ca844  1  0.15625000  0.90625000  0.03125000  1.0
  Ca  Ca845  1  0.15625000  0.90625000  0.28125000  1.0
  Ca  Ca846  1  0.15625000  0.90625000  0.53125000  1.0
  Ca  Ca847  1  0.15625000  0.90625000  0.78125000  1.0
  Ca  Ca848  1  0.40625000  0.15625000  0.03125000  1.0
  Ca  Ca849  1  0.40625000  0.15625000  0.28125000  1.0
  Ca  Ca850  1  0.40625000  0.15625000  0.53125000  1.0
  Ca  Ca851  1  0.40625000  0.15625000  0.78125000  1.0
  Ca  Ca852  1  0.40625000  0.40625000  0.03125000  1.0
  Ca  Ca853  1  0.40625000  0.40625000  0.28125000  1.0
  Ca  Ca854  1  0.40625000  0.40625000  0.53125000  1.0
  Ca  Ca855  1  0.40625000  0.40625000  0.78125000  1.0
  Ca  Ca856  1  0.40625000  0.65625000  0.03125000  1.0
  Ca  Ca857  1  0.40625000  0.65625000  0.28125000  1.0
  Ca  Ca858  1  0.40625000  0.65625000  0.53125000  1.0
  Ca  Ca859  1  0.40625000  0.65625000  0.78125000  1.0
  Ca  Ca860  1  0.40625000  0.90625000  0.03125000  1.0
  Ca  Ca861  1  0.40625000  0.90625000  0.28125000  1.0
  Ca  Ca862  1  0.40625000  0.90625000  0.53125000  1.0
  Ca  Ca863  1  0.40625000  0.90625000  0.78125000  1.0
  Ca  Ca864  1  0.65625000  0.15625000  0.03125000  1.0
  Ca  Ca865  1  0.65625000  0.15625000  0.28125000  1.0
  Ca  Ca866  1  0.65625000  0.15625000  0.53125000  1.0
  Ca  Ca867  1  0.65625000  0.15625000  0.78125000  1.0
  Ca  Ca868  1  0.65625000  0.40625000  0.03125000  1.0
  Ca  Ca869  1  0.65625000  0.40625000  0.28125000  1.0
  Ca  Ca870  1  0.65625000  0.40625000  0.53125000  1.0
  Ca  Ca871  1  0.65625000  0.40625000  0.78125000  1.0
  Ca  Ca872  1  0.65625000  0.65625000  0.03125000  1.0
  Ca  Ca873  1  0.65625000  0.65625000  0.28125000  1.0
  Ca  Ca874  1  0.65625000  0.65625000  0.53125000  1.0
  Ca  Ca875  1  0.65625000  0.65625000  0.78125000  1.0
  Ca  Ca876  1  0.65625000  0.90625000  0.03125000  1.0
  Ca  Ca877  1  0.65625000  0.90625000  0.28125000  1.0
  Ca  Ca878  1  0.65625000  0.90625000  0.53125000  1.0
  Ca  Ca879  1  0.65625000  0.90625000  0.78125000  1.0
  Ca  Ca880  1  0.90625000  0.15625000  0.03125000  1.0
  Ca  Ca881  1  0.90625000  0.15625000  0.28125000  1.0
  Ca  Ca882  1  0.90625000  0.15625000  0.53125000  1.0
  Ca  Ca883  1  0.90625000  0.15625000  0.78125000  1.0
  Ca  Ca884  1  0.90625000  0.40625000  0.03125000  1.0
  Ca  Ca885  1  0.90625000  0.40625000  0.28125000  1.0
  Ca  Ca886  1  0.90625000  0.40625000  0.53125000  1.0
  Ca  Ca887  1  0.90625000  0.40625000  0.78125000  1.0
  Ca  Ca888  1  0.90625000  0.65625000  0.03125000  1.0
  Ca  Ca889  1  0.90625000  0.65625000  0.28125000  1.0
  Ca  Ca890  1  0.90625000  0.65625000  0.53125000  1.0
  Ca  Ca891  1  0.90625000  0.65625000  0.78125000  1.0
  Ca  Ca892  1  0.90625000  0.90625000  0.03125000  1.0
  Ca  Ca893  1  0.90625000  0.90625000  0.28125000  1.0
  Ca  Ca894  1  0.90625000  0.90625000  0.53125000  1.0
  Ca  Ca895  1  0.90625000  0.90625000  0.78125000  1.0
  Ca  Ca896  1  0.15625000  0.03125000  0.15625000  1.0
  Ca  Ca897  1  0.15625000  0.03125000  0.40625000  1.0
  Ca  Ca898  1  0.15625000  0.03125000  0.65625000  1.0
  Ca  Ca899  1  0.15625000  0.03125000  0.90625000  1.0
  Ca  Ca900  1  0.15625000  0.28125000  0.15625000  1.0
  Ca  Ca901  1  0.15625000  0.28125000  0.40625000  1.0
  Ca  Ca902  1  0.15625000  0.28125000  0.65625000  1.0
  Ca  Ca903  1  0.15625000  0.28125000  0.90625000  1.0
  Ca  Ca904  1  0.15625000  0.53125000  0.15625000  1.0
  Ca  Ca905  1  0.15625000  0.53125000  0.40625000  1.0
  Ca  Ca906  1  0.15625000  0.53125000  0.65625000  1.0
  Ca  Ca907  1  0.15625000  0.53125000  0.90625000  1.0
  Ca  Ca908  1  0.15625000  0.78125000  0.15625000  1.0
  Ca  Ca909  1  0.15625000  0.78125000  0.40625000  1.0
  Ca  Ca910  1  0.15625000  0.78125000  0.65625000  1.0
  Ca  Ca911  1  0.15625000  0.78125000  0.90625000  1.0
  Ca  Ca912  1  0.40625000  0.03125000  0.15625000  1.0
  Ca  Ca913  1  0.40625000  0.03125000  0.40625000  1.0
  Ca  Ca914  1  0.40625000  0.03125000  0.65625000  1.0
  Ca  Ca915  1  0.40625000  0.03125000  0.90625000  1.0
  Ca  Ca916  1  0.40625000  0.28125000  0.15625000  1.0
  Ca  Ca917  1  0.40625000  0.28125000  0.40625000  1.0
  Ca  Ca918  1  0.40625000  0.28125000  0.65625000  1.0
  Ca  Ca919  1  0.40625000  0.28125000  0.90625000  1.0
  Ca  Ca920  1  0.40625000  0.53125000  0.15625000  1.0
  Ca  Ca921  1  0.40625000  0.53125000  0.40625000  1.0
  Ca  Ca922  1  0.40625000  0.53125000  0.65625000  1.0
  Ca  Ca923  1  0.40625000  0.53125000  0.90625000  1.0
  Ca  Ca924  1  0.40625000  0.78125000  0.15625000  1.0
  Ca  Ca925  1  0.40625000  0.78125000  0.40625000  1.0
  Ca  Ca926  1  0.40625000  0.78125000  0.65625000  1.0
  Ca  Ca927  1  0.40625000  0.78125000  0.90625000  1.0
  Ca  Ca928  1  0.65625000  0.03125000  0.15625000  1.0
  Ca  Ca929  1  0.65625000  0.03125000  0.40625000  1.0
  Ca  Ca930  1  0.65625000  0.03125000  0.65625000  1.0
  Ca  Ca931  1  0.65625000  0.03125000  0.90625000  1.0
  Ca  Ca932  1  0.65625000  0.28125000  0.15625000  1.0
  Ca  Ca933  1  0.65625000  0.28125000  0.40625000  1.0
  Ca  Ca934  1  0.65625000  0.28125000  0.65625000  1.0
  Ca  Ca935  1  0.65625000  0.28125000  0.90625000  1.0
  Ca  Ca936  1  0.65625000  0.53125000  0.15625000  1.0
  Ca  Ca937  1  0.65625000  0.53125000  0.40625000  1.0
  Ca  Ca938  1  0.65625000  0.53125000  0.65625000  1.0
  Ca  Ca939  1  0.65625000  0.53125000  0.90625000  1.0
  Ca  Ca940  1  0.65625000  0.78125000  0.15625000  1.0
  Ca  Ca941  1  0.65625000  0.78125000  0.40625000  1.0
  Ca  Ca942  1  0.65625000  0.78125000  0.65625000  1.0
  Ca  Ca943  1  0.65625000  0.78125000  0.90625000  1.0
  Ca  Ca944  1  0.90625000  0.03125000  0.15625000  1.0
  Ca  Ca945  1  0.90625000  0.03125000  0.40625000  1.0
  Ca  Ca946  1  0.90625000  0.03125000  0.65625000  1.0
  Ca  Ca947  1  0.90625000  0.03125000  0.90625000  1.0
  Ca  Ca948  1  0.90625000  0.28125000  0.15625000  1.0
  Ca  Ca949  1  0.90625000  0.28125000  0.40625000  1.0
  Ca  Ca950  1  0.90625000  0.28125000  0.65625000  1.0
  Ca  Ca951  1  0.90625000  0.28125000  0.90625000  1.0
  Ca  Ca952  1  0.90625000  0.53125000  0.15625000  1.0
  Ca  Ca953  1  0.90625000  0.53125000  0.40625000  1.0
  Ca  Ca954  1  0.90625000  0.53125000  0.65625000  1.0
  Ca  Ca955  1  0.90625000  0.53125000  0.90625000  1.0
  Ca  Ca956  1  0.90625000  0.78125000  0.15625000  1.0
  Ca  Ca957  1  0.90625000  0.78125000  0.40625000  1.0
  Ca  Ca958  1  0.90625000  0.78125000  0.65625000  1.0
  Ca  Ca959  1  0.90625000  0.78125000  0.90625000  1.0
  Ca  Ca960  1  0.03125000  0.15625000  0.15625000  1.0
  Ca  Ca961  1  0.03125000  0.15625000  0.40625000  1.0
  Ca  Ca962  1  0.03125000  0.15625000  0.65625000  1.0
  Ca  Ca963  1  0.03125000  0.15625000  0.90625000  1.0
  Ca  Ca964  1  0.03125000  0.40625000  0.15625000  1.0
  Ca  Ca965  1  0.03125000  0.40625000  0.40625000  1.0
  Ca  Ca966  1  0.03125000  0.40625000  0.65625000  1.0
  Ca  Ca967  1  0.03125000  0.40625000  0.90625000  1.0
  Ca  Ca968  1  0.03125000  0.65625000  0.15625000  1.0
  Ca  Ca969  1  0.03125000  0.65625000  0.40625000  1.0
  Ca  Ca970  1  0.03125000  0.65625000  0.65625000  1.0
  Ca  Ca971  1  0.03125000  0.65625000  0.90625000  1.0
  Ca  Ca972  1  0.03125000  0.90625000  0.15625000  1.0
  Ca  Ca973  1  0.03125000  0.90625000  0.40625000  1.0
  Ca  Ca974  1  0.03125000  0.90625000  0.65625000  1.0
  Ca  Ca975  1  0.03125000  0.90625000  0.90625000  1.0
  Ca  Ca976  1  0.28125000  0.15625000  0.15625000  1.0
  Ca  Ca977  1  0.28125000  0.15625000  0.40625000  1.0
  Ca  Ca978  1  0.28125000  0.15625000  0.65625000  1.0
  Ca  Ca979  1  0.28125000  0.15625000  0.90625000  1.0
  Ca  Ca980  1  0.28125000  0.40625000  0.15625000  1.0
  Ca  Ca981  1  0.28125000  0.40625000  0.40625000  1.0
  Ca  Ca982  1  0.28125000  0.40625000  0.65625000  1.0
  Ca  Ca983  1  0.28125000  0.40625000  0.90625000  1.0
  Ca  Ca984  1  0.28125000  0.65625000  0.15625000  1.0
  Ca  Ca985  1  0.28125000  0.65625000  0.40625000  1.0
  Ca  Ca986  1  0.28125000  0.65625000  0.65625000  1.0
  Ca  Ca987  1  0.28125000  0.65625000  0.90625000  1.0
  Ca  Ca988  1  0.28125000  0.90625000  0.15625000  1.0
  Ca  Ca989  1  0.28125000  0.90625000  0.40625000  1.0
  Ca  Ca990  1  0.28125000  0.90625000  0.65625000  1.0
  Ca  Ca991  1  0.28125000  0.90625000  0.90625000  1.0
  Ca  Ca992  1  0.53125000  0.15625000  0.15625000  1.0
  Ca  Ca993  1  0.53125000  0.15625000  0.40625000  1.0
  Ca  Ca994  1  0.53125000  0.15625000  0.65625000  1.0
  Ca  Ca995  1  0.53125000  0.15625000  0.90625000  1.0
  Ca  Ca996  1  0.53125000  0.40625000  0.15625000  1.0
  Ca  Ca997  1  0.53125000  0.40625000  0.40625000  1.0
  Ca  Ca998  1  0.53125000  0.40625000  0.65625000  1.0
  Ca  Ca999  1  0.53125000  0.40625000  0.90625000  1.0
  Ca  Ca1000  1  0.53125000  0.65625000  0.15625000  1.0
  Ca  Ca1001  1  0.53125000  0.65625000  0.40625000  1.0
  Ca  Ca1002  1  0.53125000  0.65625000  0.65625000  1.0
  Ca  Ca1003  1  0.53125000  0.65625000  0.90625000  1.0
  Ca  Ca1004  1  0.53125000  0.90625000  0.15625000  1.0
  Ca  Ca1005  1  0.53125000  0.90625000  0.40625000  1.0
  Ca  Ca1006  1  0.53125000  0.90625000  0.65625000  1.0
  Ca  Ca1007  1  0.53125000  0.90625000  0.90625000  1.0
  Ca  Ca1008  1  0.78125000  0.15625000  0.15625000  1.0
  Ca  Ca1009  1  0.78125000  0.15625000  0.40625000  1.0
  Ca  Ca1010  1  0.78125000  0.15625000  0.65625000  1.0
  Ca  Ca1011  1  0.78125000  0.15625000  0.90625000  1.0
  Ca  Ca1012  1  0.78125000  0.40625000  0.15625000  1.0
  Ca  Ca1013  1  0.78125000  0.40625000  0.40625000  1.0
  Ca  Ca1014  1  0.78125000  0.40625000  0.65625000  1.0
  Ca  Ca1015  1  0.78125000  0.40625000  0.90625000  1.0
  Ca  Ca1016  1  0.78125000  0.65625000  0.15625000  1.0
  Ca  Ca1017  1  0.78125000  0.65625000  0.40625000  1.0
  Ca  Ca1018  1  0.78125000  0.65625000  0.65625000  1.0
  Ca  Ca1019  1  0.78125000  0.65625000  0.90625000  1.0
  Ca  Ca1020  1  0.78125000  0.90625000  0.15625000  1.0
  Ca  Ca1021  1  0.78125000  0.90625000  0.40625000  1.0
  Ca  Ca1022  1  0.78125000  0.90625000  0.65625000  1.0
  Ca  Ca1023  1  0.78125000  0.90625000  0.90625000  1.0
  Mg  Mg1024  1  0.12500000  0.12500000  0.12500000  1.0
  Mg  Mg1025  1  0.12500000  0.12500000  0.37500000  1.0
  Mg  Mg1026  1  0.12500000  0.12500000  0.62500000  1.0
  Mg  Mg1027  1  0.12500000  0.12500000  0.87500000  1.0
  Mg  Mg1028  1  0.12500000  0.37500000  0.12500000  1.0
  Mg  Mg1029  1  0.12500000  0.37500000  0.37500000  1.0
  Mg  Mg1030  1  0.12500000  0.37500000  0.62500000  1.0
  Mg  Mg1031  1  0.12500000  0.37500000  0.87500000  1.0
  Mg  Mg1032  1  0.12500000  0.62500000  0.12500000  1.0
  Mg  Mg1033  1  0.12500000  0.62500000  0.37500000  1.0
  Mg  Mg1034  1  0.12500000  0.62500000  0.62500000  1.0
  Mg  Mg1035  1  0.12500000  0.62500000  0.87500000  1.0
  Mg  Mg1036  1  0.12500000  0.87500000  0.12500000  1.0
  Mg  Mg1037  1  0.12500000  0.87500000  0.37500000  1.0
  Mg  Mg1038  1  0.12500000  0.87500000  0.62500000  1.0
  Mg  Mg1039  1  0.12500000  0.87500000  0.87500000  1.0
  Mg  Mg1040  1  0.37500000  0.12500000  0.12500000  1.0
  Mg  Mg1041  1  0.37500000  0.12500000  0.37500000  1.0
  Mg  Mg1042  1  0.37500000  0.12500000  0.62500000  1.0
  Mg  Mg1043  1  0.37500000  0.12500000  0.87500000  1.0
  Mg  Mg1044  1  0.37500000  0.37500000  0.12500000  1.0
  Mg  Mg1045  1  0.37500000  0.37500000  0.37500000  1.0
  Mg  Mg1046  1  0.37500000  0.37500000  0.62500000  1.0
  Mg  Mg1047  1  0.37500000  0.37500000  0.87500000  1.0
  Mg  Mg1048  1  0.37500000  0.62500000  0.12500000  1.0
  Mg  Mg1049  1  0.37500000  0.62500000  0.37500000  1.0
  Mg  Mg1050  1  0.37500000  0.62500000  0.62500000  1.0
  Mg  Mg1051  1  0.37500000  0.62500000  0.87500000  1.0
  Mg  Mg1052  1  0.37500000  0.87500000  0.12500000  1.0
  Mg  Mg1053  1  0.37500000  0.87500000  0.37500000  1.0
  Mg  Mg1054  1  0.37500000  0.87500000  0.62500000  1.0
  Mg  Mg1055  1  0.37500000  0.87500000  0.87500000  1.0
  Mg  Mg1056  1  0.62500000  0.12500000  0.12500000  1.0
  Mg  Mg1057  1  0.62500000  0.12500000  0.37500000  1.0
  Mg  Mg1058  1  0.62500000  0.12500000  0.62500000  1.0
  Mg  Mg1059  1  0.62500000  0.12500000  0.87500000  1.0
  Mg  Mg1060  1  0.62500000  0.37500000  0.12500000  1.0
  Mg  Mg1061  1  0.62500000  0.37500000  0.37500000  1.0
  Mg  Mg1062  1  0.62500000  0.37500000  0.62500000  1.0
  Mg  Mg1063  1  0.62500000  0.37500000  0.87500000  1.0
  Mg  Mg1064  1  0.62500000  0.62500000  0.12500000  1.0
  Mg  Mg1065  1  0.62500000  0.62500000  0.37500000  1.0
  Mg  Mg1066  1  0.62500000  0.62500000  0.62500000  1.0
  Mg  Mg1067  1  0.62500000  0.62500000  0.87500000  1.0
  Mg  Mg1068  1  0.62500000  0.87500000  0.12500000  1.0
  Mg  Mg1069  1  0.62500000  0.87500000  0.37500000  1.0
  Mg  Mg1070  1  0.62500000  0.87500000  0.62500000  1.0
  Mg  Mg1071  1  0.62500000  0.87500000  0.87500000  1.0
  Mg  Mg1072  1  0.87500000  0.12500000  0.12500000  1.0
  Mg  Mg1073  1  0.87500000  0.12500000  0.37500000  1.0
  Mg  Mg1074  1  0.87500000  0.12500000  0.62500000  1.0
  Mg  Mg1075  1  0.87500000  0.12500000  0.87500000  1.0
  Mg  Mg1076  1  0.87500000  0.37500000  0.12500000  1.0
  Mg  Mg1077  1  0.87500000  0.37500000  0.37500000  1.0
  Mg  Mg1078  1  0.87500000  0.37500000  0.62500000  1.0
  Mg  Mg1079  1  0.87500000  0.37500000  0.87500000  1.0
  Mg  Mg1080  1  0.87500000  0.62500000  0.12500000  1.0
  Mg  Mg1081  1  0.87500000  0.62500000  0.37500000  1.0
  Mg  Mg1082  1  0.87500000  0.62500000  0.62500000  1.0
  Mg  Mg1083  1  0.87500000  0.62500000  0.87500000  1.0
  Mg  Mg1084  1  0.87500000  0.87500000  0.12500000  1.0
  Mg  Mg1085  1  0.87500000  0.87500000  0.37500000  1.0
  Mg  Mg1086  1  0.87500000  0.87500000  0.62500000  1.0
  Mg  Mg1087  1  0.87500000  0.87500000  0.87500000  1.0
  Mg  Mg1088  1  0.00000000  0.00000000  0.12500000  1.0
  Mg  Mg1089  1  0.00000000  0.00000000  0.37500000  1.0
  Mg  Mg1090  1  0.00000000  0.00000000  0.62500000  1.0
  Mg  Mg1091  1  0.00000000  0.00000000  0.87500000  1.0
  Mg  Mg1092  1  0.00000000  0.25000000  0.12500000  1.0
  Mg  Mg1093  1  0.00000000  0.25000000  0.37500000  1.0
  Mg  Mg1094  1  0.00000000  0.25000000  0.62500000  1.0
  Mg  Mg1095  1  0.00000000  0.25000000  0.87500000  1.0
  Mg  Mg1096  1  0.00000000  0.50000000  0.12500000  1.0
  Mg  Mg1097  1  0.00000000  0.50000000  0.37500000  1.0
  Mg  Mg1098  1  0.00000000  0.50000000  0.62500000  1.0
  Mg  Mg1099  1  0.00000000  0.50000000  0.87500000  1.0
  Mg  Mg1100  1  0.00000000  0.75000000  0.12500000  1.0
  Mg  Mg1101  1  0.00000000  0.75000000  0.37500000  1.0
  Mg  Mg1102  1  0.00000000  0.75000000  0.62500000  1.0
  Mg  Mg1103  1  0.00000000  0.75000000  0.87500000  1.0
  Mg  Mg1104  1  0.25000000  0.00000000  0.12500000  1.0
  Mg  Mg1105  1  0.25000000  0.00000000  0.37500000  1.0
  Mg  Mg1106  1  0.25000000  0.00000000  0.62500000  1.0
  Mg  Mg1107  1  0.25000000  0.00000000  0.87500000  1.0
  Mg  Mg1108  1  0.25000000  0.25000000  0.12500000  1.0
  Mg  Mg1109  1  0.25000000  0.25000000  0.37500000  1.0
  Mg  Mg1110  1  0.25000000  0.25000000  0.62500000  1.0
  Mg  Mg1111  1  0.25000000  0.25000000  0.87500000  1.0
  Mg  Mg1112  1  0.25000000  0.50000000  0.12500000  1.0
  Mg  Mg1113  1  0.25000000  0.50000000  0.37500000  1.0
  Mg  Mg1114  1  0.25000000  0.50000000  0.62500000  1.0
  Mg  Mg1115  1  0.25000000  0.50000000  0.87500000  1.0
  Mg  Mg1116  1  0.25000000  0.75000000  0.12500000  1.0
  Mg  Mg1117  1  0.25000000  0.75000000  0.37500000  1.0
  Mg  Mg1118  1  0.25000000  0.75000000  0.62500000  1.0
  Mg  Mg1119  1  0.25000000  0.75000000  0.87500000  1.0
  Mg  Mg1120  1  0.50000000  0.00000000  0.12500000  1.0
  Mg  Mg1121  1  0.50000000  0.00000000  0.37500000  1.0
  Mg  Mg1122  1  0.50000000  0.00000000  0.62500000  1.0
  Mg  Mg1123  1  0.50000000  0.00000000  0.87500000  1.0
  Mg  Mg1124  1  0.50000000  0.25000000  0.12500000  1.0
  Mg  Mg1125  1  0.50000000  0.25000000  0.37500000  1.0
  Mg  Mg1126  1  0.50000000  0.25000000  0.62500000  1.0
  Mg  Mg1127  1  0.50000000  0.25000000  0.87500000  1.0
  Mg  Mg1128  1  0.50000000  0.50000000  0.12500000  1.0
  Mg  Mg1129  1  0.50000000  0.50000000  0.37500000  1.0
  Mg  Mg1130  1  0.50000000  0.50000000  0.62500000  1.0
  Mg  Mg1131  1  0.50000000  0.50000000  0.87500000  1.0
  Mg  Mg1132  1  0.50000000  0.75000000  0.12500000  1.0
  Mg  Mg1133  1  0.50000000  0.75000000  0.37500000  1.0
  Mg  Mg1134  1  0.50000000  0.75000000  0.62500000  1.0
  Mg  Mg1135  1  0.50000000  0.75000000  0.87500000  1.0
  Mg  Mg1136  1  0.75000000  0.00000000  0.12500000  1.0
  Mg  Mg1137  1  0.75000000  0.00000000  0.37500000  1.0
  Mg  Mg1138  1  0.75000000  0.00000000  0.62500000  1.0
  Mg  Mg1139  1  0.75000000  0.00000000  0.87500000  1.0
  Mg  Mg1140  1  0.75000000  0.25000000  0.12500000  1.0
  Mg  Mg1141  1  0.75000000  0.25000000  0.37500000  1.0
  Mg  Mg1142  1  0.75000000  0.25000000  0.62500000  1.0
  Mg  Mg1143  1  0.75000000  0.25000000  0.87500000  1.0
  Mg  Mg1144  1  0.75000000  0.50000000  0.12500000  1.0
  Mg  Mg1145  1  0.75000000  0.50000000  0.37500000  1.0
  Mg  Mg1146  1  0.75000000  0.50000000  0.62500000  1.0
  Mg  Mg1147  1  0.75000000  0.50000000  0.87500000  1.0
  Mg  Mg1148  1  0.75000000  0.75000000  0.12500000  1.0
  Mg  Mg1149  1  0.75000000  0.75000000  0.37500000  1.0
  Mg  Mg1150  1  0.75000000  0.75000000  0.62500000  1.0
  Mg  Mg1151  1  0.75000000  0.75000000  0.87500000  1.0
  Mg  Mg1152  1  0.00000000  0.12500000  0.00000000  1.0
  Mg  Mg1153  1  0.00000000  0.12500000  0.25000000  1.0
  Mg  Mg1154  1  0.00000000  0.12500000  0.50000000  1.0
  Mg  Mg1155  1  0.00000000  0.12500000  0.75000000  1.0
  Mg  Mg1156  1  0.00000000  0.37500000  0.00000000  1.0
  Mg  Mg1157  1  0.00000000  0.37500000  0.25000000  1.0
  Mg  Mg1158  1  0.00000000  0.37500000  0.50000000  1.0
  Mg  Mg1159  1  0.00000000  0.37500000  0.75000000  1.0
  Mg  Mg1160  1  0.00000000  0.62500000  0.00000000  1.0
  Mg  Mg1161  1  0.00000000  0.62500000  0.25000000  1.0
  Mg  Mg1162  1  0.00000000  0.62500000  0.50000000  1.0
  Mg  Mg1163  1  0.00000000  0.62500000  0.75000000  1.0
  Mg  Mg1164  1  0.00000000  0.87500000  0.00000000  1.0
  Mg  Mg1165  1  0.00000000  0.87500000  0.25000000  1.0
  Mg  Mg1166  1  0.00000000  0.87500000  0.50000000  1.0
  Mg  Mg1167  1  0.00000000  0.87500000  0.75000000  1.0
  Mg  Mg1168  1  0.25000000  0.12500000  0.00000000  1.0
  Mg  Mg1169  1  0.25000000  0.12500000  0.25000000  1.0
  Mg  Mg1170  1  0.25000000  0.12500000  0.50000000  1.0
  Mg  Mg1171  1  0.25000000  0.12500000  0.75000000  1.0
  Mg  Mg1172  1  0.25000000  0.37500000  0.00000000  1.0
  Mg  Mg1173  1  0.25000000  0.37500000  0.25000000  1.0
  Mg  Mg1174  1  0.25000000  0.37500000  0.50000000  1.0
  Mg  Mg1175  1  0.25000000  0.37500000  0.75000000  1.0
  Mg  Mg1176  1  0.25000000  0.62500000  0.00000000  1.0
  Mg  Mg1177  1  0.25000000  0.62500000  0.25000000  1.0
  Mg  Mg1178  1  0.25000000  0.62500000  0.50000000  1.0
  Mg  Mg1179  1  0.25000000  0.62500000  0.75000000  1.0
  Mg  Mg1180  1  0.25000000  0.87500000  0.00000000  1.0
  Mg  Mg1181  1  0.25000000  0.87500000  0.25000000  1.0
  Mg  Mg1182  1  0.25000000  0.87500000  0.50000000  1.0
  Mg  Mg1183  1  0.25000000  0.87500000  0.75000000  1.0
  Mg  Mg1184  1  0.50000000  0.12500000  0.00000000  1.0
  Mg  Mg1185  1  0.50000000  0.12500000  0.25000000  1.0
  Mg  Mg1186  1  0.50000000  0.12500000  0.50000000  1.0
  Mg  Mg1187  1  0.50000000  0.12500000  0.75000000  1.0
  Mg  Mg1188  1  0.50000000  0.37500000  0.00000000  1.0
  Mg  Mg1189  1  0.50000000  0.37500000  0.25000000  1.0
  Mg  Mg1190  1  0.50000000  0.37500000  0.50000000  1.0
  Mg  Mg1191  1  0.50000000  0.37500000  0.75000000  1.0
  Mg  Mg1192  1  0.50000000  0.62500000  0.00000000  1.0
  Mg  Mg1193  1  0.50000000  0.62500000  0.25000000  1.0
  Mg  Mg1194  1  0.50000000  0.62500000  0.50000000  1.0
  Mg  Mg1195  1  0.50000000  0.62500000  0.75000000  1.0
  Mg  Mg1196  1  0.50000000  0.87500000  0.00000000  1.0
  Mg  Mg1197  1  0.50000000  0.87500000  0.25000000  1.0
  Mg  Mg1198  1  0.50000000  0.87500000  0.50000000  1.0
  Mg  Mg1199  1  0.50000000  0.87500000  0.75000000  1.0
  Mg  Mg1200  1  0.75000000  0.12500000  0.00000000  1.0
  Mg  Mg1201  1  0.75000000  0.12500000  0.25000000  1.0
  Mg  Mg1202  1  0.75000000  0.12500000  0.50000000  1.0
  Mg  Mg1203  1  0.75000000  0.12500000  0.75000000  1.0
  Mg  Mg1204  1  0.75000000  0.37500000  0.00000000  1.0
  Mg  Mg1205  1  0.75000000  0.37500000  0.25000000  1.0
  Mg  Mg1206  1  0.75000000  0.37500000  0.50000000  1.0
  Mg  Mg1207  1  0.75000000  0.37500000  0.75000000  1.0
  Mg  Mg1208  1  0.75000000  0.62500000  0.00000000  1.0
  Mg  Mg1209  1  0.75000000  0.62500000  0.25000000  1.0
  Mg  Mg1210  1  0.75000000  0.62500000  0.50000000  1.0
  Mg  Mg1211  1  0.75000000  0.62500000  0.75000000  1.0
  Mg  Mg1212  1  0.75000000  0.87500000  1.00000000  1.0
  Mg  Mg1213  1  0.75000000  0.87500000  0.25000000  1.0
  Mg  Mg1214  1  0.75000000  0.87500000  0.50000000  1.0
  Mg  Mg1215  1  0.75000000  0.87500000  0.75000000  1.0
  Mg  Mg1216  1  0.12500000  0.00000000  0.00000000  1.0
  Mg  Mg1217  1  0.12500000  0.00000000  0.25000000  1.0
  Mg  Mg1218  1  0.12500000  0.00000000  0.50000000  1.0
  Mg  Mg1219  1  0.12500000  0.00000000  0.75000000  1.0
  Mg  Mg1220  1  0.12500000  0.25000000  0.00000000  1.0
  Mg  Mg1221  1  0.12500000  0.25000000  0.25000000  1.0
  Mg  Mg1222  1  0.12500000  0.25000000  0.50000000  1.0
  Mg  Mg1223  1  0.12500000  0.25000000  0.75000000  1.0
  Mg  Mg1224  1  0.12500000  0.50000000  0.00000000  1.0
  Mg  Mg1225  1  0.12500000  0.50000000  0.25000000  1.0
  Mg  Mg1226  1  0.12500000  0.50000000  0.50000000  1.0
  Mg  Mg1227  1  0.12500000  0.50000000  0.75000000  1.0
  Mg  Mg1228  1  0.12500000  0.75000000  0.00000000  1.0
  Mg  Mg1229  1  0.12500000  0.75000000  0.25000000  1.0
  Mg  Mg1230  1  0.12500000  0.75000000  0.50000000  1.0
  Mg  Mg1231  1  0.12500000  0.75000000  0.75000000  1.0
  Mg  Mg1232  1  0.37500000  0.00000000  0.00000000  1.0
  Mg  Mg1233  1  0.37500000  0.00000000  0.25000000  1.0
  Mg  Mg1234  1  0.37500000  0.00000000  0.50000000  1.0
  Mg  Mg1235  1  0.37500000  0.00000000  0.75000000  1.0
  Mg  Mg1236  1  0.37500000  0.25000000  0.00000000  1.0
  Mg  Mg1237  1  0.37500000  0.25000000  0.25000000  1.0
  Mg  Mg1238  1  0.37500000  0.25000000  0.50000000  1.0
  Mg  Mg1239  1  0.37500000  0.25000000  0.75000000  1.0
  Mg  Mg1240  1  0.37500000  0.50000000  0.00000000  1.0
  Mg  Mg1241  1  0.37500000  0.50000000  0.25000000  1.0
  Mg  Mg1242  1  0.37500000  0.50000000  0.50000000  1.0
  Mg  Mg1243  1  0.37500000  0.50000000  0.75000000  1.0
  Mg  Mg1244  1  0.37500000  0.75000000  0.00000000  1.0
  Mg  Mg1245  1  0.37500000  0.75000000  0.25000000  1.0
  Mg  Mg1246  1  0.37500000  0.75000000  0.50000000  1.0
  Mg  Mg1247  1  0.37500000  0.75000000  0.75000000  1.0
  Mg  Mg1248  1  0.62500000  0.00000000  0.00000000  1.0
  Mg  Mg1249  1  0.62500000  0.00000000  0.25000000  1.0
  Mg  Mg1250  1  0.62500000  0.00000000  0.50000000  1.0
  Mg  Mg1251  1  0.62500000  0.00000000  0.75000000  1.0
  Mg  Mg1252  1  0.62500000  0.25000000  0.00000000  1.0
  Mg  Mg1253  1  0.62500000  0.25000000  0.25000000  1.0
  Mg  Mg1254  1  0.62500000  0.25000000  0.50000000  1.0
  Mg  Mg1255  1  0.62500000  0.25000000  0.75000000  1.0
  Mg  Mg1256  1  0.62500000  0.50000000  0.00000000  1.0
  Mg  Mg1257  1  0.62500000  0.50000000  0.25000000  1.0
  Mg  Mg1258  1  0.62500000  0.50000000  0.50000000  1.0
  Mg  Mg1259  1  0.62500000  0.50000000  0.75000000  1.0
  Mg  Mg1260  1  0.62500000  0.75000000  0.00000000  1.0
  Mg  Mg1261  1  0.62500000  0.75000000  0.25000000  1.0
  Mg  Mg1262  1  0.62500000  0.75000000  0.50000000  1.0
  Mg  Mg1263  1  0.62500000  0.75000000  0.75000000  1.0
  Mg  Mg1264  1  0.87500000  0.00000000  0.00000000  1.0
  Mg  Mg1265  1  0.87500000  0.00000000  0.25000000  1.0
  Mg  Mg1266  1  0.87500000  0.00000000  0.50000000  1.0
  Mg  Mg1267  1  0.87500000  0.00000000  0.75000000  1.0
  Mg  Mg1268  1  0.87500000  0.25000000  0.00000000  1.0
  Mg  Mg1269  1  0.87500000  0.25000000  0.25000000  1.0
  Mg  Mg1270  1  0.87500000  0.25000000  0.50000000  1.0
  Mg  Mg1271  1  0.87500000  0.25000000  0.75000000  1.0
  Mg  Mg1272  1  0.87500000  0.50000000  0.00000000  1.0
  Mg  Mg1273  1  0.87500000  0.50000000  0.25000000  1.0
  Mg  Mg1274  1  0.87500000  0.50000000  0.50000000  1.0
  Mg  Mg1275  1  0.87500000  0.50000000  0.75000000  1.0
  Mg  Mg1276  1  0.87500000  0.75000000  0.00000000  1.0
  Mg  Mg1277  1  0.87500000  0.75000000  0.25000000  1.0
  Mg  Mg1278  1  0.87500000  0.75000000  0.50000000  1.0
  Mg  Mg1279  1  0.87500000  0.75000000  0.75000000  1.0
  Mg  Mg1280  1  0.12500000  0.06250000  0.06250000  1.0
  Mg  Mg1281  1  0.12500000  0.06250000  0.31250000  1.0
  Mg  Mg1282  1  0.12500000  0.06250000  0.56250000  1.0
  Mg  Mg1283  1  0.12500000  0.06250000  0.81250000  1.0
  Mg  Mg1284  1  0.12500000  0.31250000  0.06250000  1.0
  Mg  Mg1285  1  0.12500000  0.31250000  0.31250000  1.0
  Mg  Mg1286  1  0.12500000  0.31250000  0.56250000  1.0
  Mg  Mg1287  1  0.12500000  0.31250000  0.81250000  1.0
  Mg  Mg1288  1  0.12500000  0.56250000  0.06250000  1.0
  Mg  Mg1289  1  0.12500000  0.56250000  0.31250000  1.0
  Mg  Mg1290  1  0.12500000  0.56250000  0.56250000  1.0
  Mg  Mg1291  1  0.12500000  0.56250000  0.81250000  1.0
  Mg  Mg1292  1  0.12500000  0.81250000  0.06250000  1.0
  Mg  Mg1293  1  0.12500000  0.81250000  0.31250000  1.0
  Mg  Mg1294  1  0.12500000  0.81250000  0.56250000  1.0
  Mg  Mg1295  1  0.12500000  0.81250000  0.81250000  1.0
  Mg  Mg1296  1  0.37500000  0.06250000  0.06250000  1.0
  Mg  Mg1297  1  0.37500000  0.06250000  0.31250000  1.0
  Mg  Mg1298  1  0.37500000  0.06250000  0.56250000  1.0
  Mg  Mg1299  1  0.37500000  0.06250000  0.81250000  1.0
  Mg  Mg1300  1  0.37500000  0.31250000  0.06250000  1.0
  Mg  Mg1301  1  0.37500000  0.31250000  0.31250000  1.0
  Mg  Mg1302  1  0.37500000  0.31250000  0.56250000  1.0
  Mg  Mg1303  1  0.37500000  0.31250000  0.81250000  1.0
  Mg  Mg1304  1  0.37500000  0.56250000  0.06250000  1.0
  Mg  Mg1305  1  0.37500000  0.56250000  0.31250000  1.0
  Mg  Mg1306  1  0.37500000  0.56250000  0.56250000  1.0
  Mg  Mg1307  1  0.37500000  0.56250000  0.81250000  1.0
  Mg  Mg1308  1  0.37500000  0.81250000  0.06250000  1.0
  Mg  Mg1309  1  0.37500000  0.81250000  0.31250000  1.0
  Mg  Mg1310  1  0.37500000  0.81250000  0.56250000  1.0
  Mg  Mg1311  1  0.37500000  0.81250000  0.81250000  1.0
  Mg  Mg1312  1  0.62500000  0.06250000  0.06250000  1.0
  Mg  Mg1313  1  0.62500000  0.06250000  0.31250000  1.0
  Mg  Mg1314  1  0.62500000  0.06250000  0.56250000  1.0
  Mg  Mg1315  1  0.62500000  0.06250000  0.81250000  1.0
  Mg  Mg1316  1  0.62500000  0.31250000  0.06250000  1.0
  Mg  Mg1317  1  0.62500000  0.31250000  0.31250000  1.0
  Mg  Mg1318  1  0.62500000  0.31250000  0.56250000  1.0
  Mg  Mg1319  1  0.62500000  0.31250000  0.81250000  1.0
  Mg  Mg1320  1  0.62500000  0.56250000  0.06250000  1.0
  Mg  Mg1321  1  0.62500000  0.56250000  0.31250000  1.0
  Mg  Mg1322  1  0.62500000  0.56250000  0.56250000  1.0
  Mg  Mg1323  1  0.62500000  0.56250000  0.81250000  1.0
  Mg  Mg1324  1  0.62500000  0.81250000  0.06250000  1.0
  Mg  Mg1325  1  0.62500000  0.81250000  0.31250000  1.0
  Mg  Mg1326  1  0.62500000  0.81250000  0.56250000  1.0
  Mg  Mg1327  1  0.62500000  0.81250000  0.81250000  1.0
  Mg  Mg1328  1  0.87500000  0.06250000  0.06250000  1.0
  Mg  Mg1329  1  0.87500000  0.06250000  0.31250000  1.0
  Mg  Mg1330  1  0.87500000  0.06250000  0.56250000  1.0
  Mg  Mg1331  1  0.87500000  0.06250000  0.81250000  1.0
  Mg  Mg1332  1  0.87500000  0.31250000  0.06250000  1.0
  Mg  Mg1333  1  0.87500000  0.31250000  0.31250000  1.0
  Mg  Mg1334  1  0.87500000  0.31250000  0.56250000  1.0
  Mg  Mg1335  1  0.87500000  0.31250000  0.81250000  1.0
  Mg  Mg1336  1  0.87500000  0.56250000  0.06250000  1.0
  Mg  Mg1337  1  0.87500000  0.56250000  0.31250000  1.0
  Mg  Mg1338  1  0.87500000  0.56250000  0.56250000  1.0
  Mg  Mg1339  1  0.87500000  0.56250000  0.81250000  1.0
  Mg  Mg1340  1  0.87500000  0.81250000  0.06250000  1.0
  Mg  Mg1341  1  0.87500000  0.81250000  0.31250000  1.0
  Mg  Mg1342  1  0.87500000  0.81250000  0.56250000  1.0
  Mg  Mg1343  1  0.87500000  0.81250000  0.81250000  1.0
  Mg  Mg1344  1  0.00000000  0.18750000  0.06250000  1.0
  Mg  Mg1345  1  0.00000000  0.18750000  0.31250000  1.0
  Mg  Mg1346  1  0.00000000  0.18750000  0.56250000  1.0
  Mg  Mg1347  1  0.00000000  0.18750000  0.81250000  1.0
  Mg  Mg1348  1  0.00000000  0.43750000  0.06250000  1.0
  Mg  Mg1349  1  0.00000000  0.43750000  0.31250000  1.0
  Mg  Mg1350  1  0.00000000  0.43750000  0.56250000  1.0
  Mg  Mg1351  1  0.00000000  0.43750000  0.81250000  1.0
  Mg  Mg1352  1  0.00000000  0.68750000  0.06250000  1.0
  Mg  Mg1353  1  0.00000000  0.68750000  0.31250000  1.0
  Mg  Mg1354  1  0.00000000  0.68750000  0.56250000  1.0
  Mg  Mg1355  1  0.00000000  0.68750000  0.81250000  1.0
  Mg  Mg1356  1  0.00000000  0.93750000  0.06250000  1.0
  Mg  Mg1357  1  0.00000000  0.93750000  0.31250000  1.0
  Mg  Mg1358  1  0.00000000  0.93750000  0.56250000  1.0
  Mg  Mg1359  1  0.00000000  0.93750000  0.81250000  1.0
  Mg  Mg1360  1  0.25000000  0.18750000  0.06250000  1.0
  Mg  Mg1361  1  0.25000000  0.18750000  0.31250000  1.0
  Mg  Mg1362  1  0.25000000  0.18750000  0.56250000  1.0
  Mg  Mg1363  1  0.25000000  0.18750000  0.81250000  1.0
  Mg  Mg1364  1  0.25000000  0.43750000  0.06250000  1.0
  Mg  Mg1365  1  0.25000000  0.43750000  0.31250000  1.0
  Mg  Mg1366  1  0.25000000  0.43750000  0.56250000  1.0
  Mg  Mg1367  1  0.25000000  0.43750000  0.81250000  1.0
  Mg  Mg1368  1  0.25000000  0.68750000  0.06250000  1.0
  Mg  Mg1369  1  0.25000000  0.68750000  0.31250000  1.0
  Mg  Mg1370  1  0.25000000  0.68750000  0.56250000  1.0
  Mg  Mg1371  1  0.25000000  0.68750000  0.81250000  1.0
  Mg  Mg1372  1  0.25000000  0.93750000  0.06250000  1.0
  Mg  Mg1373  1  0.25000000  0.93750000  0.31250000  1.0
  Mg  Mg1374  1  0.25000000  0.93750000  0.56250000  1.0
  Mg  Mg1375  1  0.25000000  0.93750000  0.81250000  1.0
  Mg  Mg1376  1  0.50000000  0.18750000  0.06250000  1.0
  Mg  Mg1377  1  0.50000000  0.18750000  0.31250000  1.0
  Mg  Mg1378  1  0.50000000  0.18750000  0.56250000  1.0
  Mg  Mg1379  1  0.50000000  0.18750000  0.81250000  1.0
  Mg  Mg1380  1  0.50000000  0.43750000  0.06250000  1.0
  Mg  Mg1381  1  0.50000000  0.43750000  0.31250000  1.0
  Mg  Mg1382  1  0.50000000  0.43750000  0.56250000  1.0
  Mg  Mg1383  1  0.50000000  0.43750000  0.81250000  1.0
  Mg  Mg1384  1  0.50000000  0.68750000  0.06250000  1.0
  Mg  Mg1385  1  0.50000000  0.68750000  0.31250000  1.0
  Mg  Mg1386  1  0.50000000  0.68750000  0.56250000  1.0
  Mg  Mg1387  1  0.50000000  0.68750000  0.81250000  1.0
  Mg  Mg1388  1  0.50000000  0.93750000  0.06250000  1.0
  Mg  Mg1389  1  0.50000000  0.93750000  0.31250000  1.0
  Mg  Mg1390  1  0.50000000  0.93750000  0.56250000  1.0
  Mg  Mg1391  1  0.50000000  0.93750000  0.81250000  1.0
  Mg  Mg1392  1  0.75000000  0.18750000  0.06250000  1.0
  Mg  Mg1393  1  0.75000000  0.18750000  0.31250000  1.0
  Mg  Mg1394  1  0.75000000  0.18750000  0.56250000  1.0
  Mg  Mg1395  1  0.75000000  0.18750000  0.81250000  1.0
  Mg  Mg1396  1  0.75000000  0.43750000  0.06250000  1.0
  Mg  Mg1397  1  0.75000000  0.43750000  0.31250000  1.0
  Mg  Mg1398  1  0.75000000  0.43750000  0.56250000  1.0
  Mg  Mg1399  1  0.75000000  0.43750000  0.81250000  1.0
  Mg  Mg1400  1  0.75000000  0.68750000  0.06250000  1.0
  Mg  Mg1401  1  0.75000000  0.68750000  0.31250000  1.0
  Mg  Mg1402  1  0.75000000  0.68750000  0.56250000  1.0
  Mg  Mg1403  1  0.75000000  0.68750000  0.81250000  1.0
  Mg  Mg1404  1  0.75000000  0.93750000  0.06250000  1.0
  Mg  Mg1405  1  0.75000000  0.93750000  0.31250000  1.0
  Mg  Mg1406  1  0.75000000  0.93750000  0.56250000  1.0
  Mg  Mg1407  1  0.75000000  0.93750000  0.81250000  1.0
  Mg  Mg1408  1  0.00000000  0.06250000  0.18750000  1.0
  Mg  Mg1409  1  0.00000000  0.06250000  0.43750000  1.0
  Mg  Mg1410  1  0.00000000  0.06250000  0.68750000  1.0
  Mg  Mg1411  1  0.00000000  0.06250000  0.93750000  1.0
  Mg  Mg1412  1  0.00000000  0.31250000  0.18750000  1.0
  Mg  Mg1413  1  0.00000000  0.31250000  0.43750000  1.0
  Mg  Mg1414  1  0.00000000  0.31250000  0.68750000  1.0
  Mg  Mg1415  1  0.00000000  0.31250000  0.93750000  1.0
  Mg  Mg1416  1  0.00000000  0.56250000  0.18750000  1.0
  Mg  Mg1417  1  0.00000000  0.56250000  0.43750000  1.0
  Mg  Mg1418  1  0.00000000  0.56250000  0.68750000  1.0
  Mg  Mg1419  1  0.00000000  0.56250000  0.93750000  1.0
  Mg  Mg1420  1  0.00000000  0.81250000  0.18750000  1.0
  Mg  Mg1421  1  0.00000000  0.81250000  0.43750000  1.0
  Mg  Mg1422  1  0.00000000  0.81250000  0.68750000  1.0
  Mg  Mg1423  1  0.00000000  0.81250000  0.93750000  1.0
  Mg  Mg1424  1  0.25000000  0.06250000  0.18750000  1.0
  Mg  Mg1425  1  0.25000000  0.06250000  0.43750000  1.0
  Mg  Mg1426  1  0.25000000  0.06250000  0.68750000  1.0
  Mg  Mg1427  1  0.25000000  0.06250000  0.93750000  1.0
  Mg  Mg1428  1  0.25000000  0.31250000  0.18750000  1.0
  Mg  Mg1429  1  0.25000000  0.31250000  0.43750000  1.0
  Mg  Mg1430  1  0.25000000  0.31250000  0.68750000  1.0
  Mg  Mg1431  1  0.25000000  0.31250000  0.93750000  1.0
  Mg  Mg1432  1  0.25000000  0.56250000  0.18750000  1.0
  Mg  Mg1433  1  0.25000000  0.56250000  0.43750000  1.0
  Mg  Mg1434  1  0.25000000  0.56250000  0.68750000  1.0
  Mg  Mg1435  1  0.25000000  0.56250000  0.93750000  1.0
  Mg  Mg1436  1  0.25000000  0.81250000  0.18750000  1.0
  Mg  Mg1437  1  0.25000000  0.81250000  0.43750000  1.0
  Mg  Mg1438  1  0.25000000  0.81250000  0.68750000  1.0
  Mg  Mg1439  1  0.25000000  0.81250000  0.93750000  1.0
  Mg  Mg1440  1  0.50000000  0.06250000  0.18750000  1.0
  Mg  Mg1441  1  0.50000000  0.06250000  0.43750000  1.0
  Mg  Mg1442  1  0.50000000  0.06250000  0.68750000  1.0
  Mg  Mg1443  1  0.50000000  0.06250000  0.93750000  1.0
  Mg  Mg1444  1  0.50000000  0.31250000  0.18750000  1.0
  Mg  Mg1445  1  0.50000000  0.31250000  0.43750000  1.0
  Mg  Mg1446  1  0.50000000  0.31250000  0.68750000  1.0
  Mg  Mg1447  1  0.50000000  0.31250000  0.93750000  1.0
  Mg  Mg1448  1  0.50000000  0.56250000  0.18750000  1.0
  Mg  Mg1449  1  0.50000000  0.56250000  0.43750000  1.0
  Mg  Mg1450  1  0.50000000  0.56250000  0.68750000  1.0
  Mg  Mg1451  1  0.50000000  0.56250000  0.93750000  1.0
  Mg  Mg1452  1  0.50000000  0.81250000  0.18750000  1.0
  Mg  Mg1453  1  0.50000000  0.81250000  0.43750000  1.0
  Mg  Mg1454  1  0.50000000  0.81250000  0.68750000  1.0
  Mg  Mg1455  1  0.50000000  0.81250000  0.93750000  1.0
  Mg  Mg1456  1  0.75000000  0.06250000  0.18750000  1.0
  Mg  Mg1457  1  0.75000000  0.06250000  0.43750000  1.0
  Mg  Mg1458  1  0.75000000  0.06250000  0.68750000  1.0
  Mg  Mg1459  1  0.75000000  0.06250000  0.93750000  1.0
  Mg  Mg1460  1  0.75000000  0.31250000  0.18750000  1.0
  Mg  Mg1461  1  0.75000000  0.31250000  0.43750000  1.0
  Mg  Mg1462  1  0.75000000  0.31250000  0.68750000  1.0
  Mg  Mg1463  1  0.75000000  0.31250000  0.93750000  1.0
  Mg  Mg1464  1  0.75000000  0.56250000  0.18750000  1.0
  Mg  Mg1465  1  0.75000000  0.56250000  0.43750000  1.0
  Mg  Mg1466  1  0.75000000  0.56250000  0.68750000  1.0
  Mg  Mg1467  1  0.75000000  0.56250000  0.93750000  1.0
  Mg  Mg1468  1  0.75000000  0.81250000  0.18750000  1.0
  Mg  Mg1469  1  0.75000000  0.81250000  0.43750000  1.0
  Mg  Mg1470  1  0.75000000  0.81250000  0.68750000  1.0
  Mg  Mg1471  1  0.75000000  0.81250000  0.93750000  1.0
  Mg  Mg1472  1  0.12500000  0.18750000  0.18750000  1.0
  Mg  Mg1473  1  0.12500000  0.18750000  0.43750000  1.0
  Mg  Mg1474  1  0.12500000  0.18750000  0.68750000  1.0
  Mg  Mg1475  1  0.12500000  0.18750000  0.93750000  1.0
  Mg  Mg1476  1  0.12500000  0.43750000  0.18750000  1.0
  Mg  Mg1477  1  0.12500000  0.43750000  0.43750000  1.0
  Mg  Mg1478  1  0.12500000  0.43750000  0.68750000  1.0
  Mg  Mg1479  1  0.12500000  0.43750000  0.93750000  1.0
  Mg  Mg1480  1  0.12500000  0.68750000  0.18750000  1.0
  Mg  Mg1481  1  0.12500000  0.68750000  0.43750000  1.0
  Mg  Mg1482  1  0.12500000  0.68750000  0.68750000  1.0
  Mg  Mg1483  1  0.12500000  0.68750000  0.93750000  1.0
  Mg  Mg1484  1  0.12500000  0.93750000  0.18750000  1.0
  Mg  Mg1485  1  0.12500000  0.93750000  0.43750000  1.0
  Mg  Mg1486  1  0.12500000  0.93750000  0.68750000  1.0
  Mg  Mg1487  1  0.12500000  0.93750000  0.93750000  1.0
  Mg  Mg1488  1  0.37500000  0.18750000  0.18750000  1.0
  Mg  Mg1489  1  0.37500000  0.18750000  0.43750000  1.0
  Mg  Mg1490  1  0.37500000  0.18750000  0.68750000  1.0
  Mg  Mg1491  1  0.37500000  0.18750000  0.93750000  1.0
  Mg  Mg1492  1  0.37500000  0.43750000  0.18750000  1.0
  Mg  Mg1493  1  0.37500000  0.43750000  0.43750000  1.0
  Mg  Mg1494  1  0.37500000  0.43750000  0.68750000  1.0
  Mg  Mg1495  1  0.37500000  0.43750000  0.93750000  1.0
  Mg  Mg1496  1  0.37500000  0.68750000  0.18750000  1.0
  Mg  Mg1497  1  0.37500000  0.68750000  0.43750000  1.0
  Mg  Mg1498  1  0.37500000  0.68750000  0.68750000  1.0
  Mg  Mg1499  1  0.37500000  0.68750000  0.93750000  1.0
  Mg  Mg1500  1  0.37500000  0.93750000  0.18750000  1.0
  Mg  Mg1501  1  0.37500000  0.93750000  0.43750000  1.0
  Mg  Mg1502  1  0.37500000  0.93750000  0.68750000  1.0
  Mg  Mg1503  1  0.37500000  0.93750000  0.93750000  1.0
  Mg  Mg1504  1  0.62500000  0.18750000  0.18750000  1.0
  Mg  Mg1505  1  0.62500000  0.18750000  0.43750000  1.0
  Mg  Mg1506  1  0.62500000  0.18750000  0.68750000  1.0
  Mg  Mg1507  1  0.62500000  0.18750000  0.93750000  1.0
  Mg  Mg1508  1  0.62500000  0.43750000  0.18750000  1.0
  Mg  Mg1509  1  0.62500000  0.43750000  0.43750000  1.0
  Mg  Mg1510  1  0.62500000  0.43750000  0.68750000  1.0
  Mg  Mg1511  1  0.62500000  0.43750000  0.93750000  1.0
  Mg  Mg1512  1  0.62500000  0.68750000  0.18750000  1.0
  Mg  Mg1513  1  0.62500000  0.68750000  0.43750000  1.0
  Mg  Mg1514  1  0.62500000  0.68750000  0.68750000  1.0
  Mg  Mg1515  1  0.62500000  0.68750000  0.93750000  1.0
  Mg  Mg1516  1  0.62500000  0.93750000  0.18750000  1.0
  Mg  Mg1517  1  0.62500000  0.93750000  0.43750000  1.0
  Mg  Mg1518  1  0.62500000  0.93750000  0.68750000  1.0
  Mg  Mg1519  1  0.62500000  0.93750000  0.93750000  1.0
  Mg  Mg1520  1  0.87500000  0.18750000  0.18750000  1.0
  Mg  Mg1521  1  0.87500000  0.18750000  0.43750000  1.0
  Mg  Mg1522  1  0.87500000  0.18750000  0.68750000  1.0
  Mg  Mg1523  1  0.87500000  0.18750000  0.93750000  1.0
  Mg  Mg1524  1  0.87500000  0.43750000  0.18750000  1.0
  Mg  Mg1525  1  0.87500000  0.43750000  0.43750000  1.0
  Mg  Mg1526  1  0.87500000  0.43750000  0.68750000  1.0
  Mg  Mg1527  1  0.87500000  0.43750000  0.93750000  1.0
  Mg  Mg1528  1  0.87500000  0.68750000  0.18750000  1.0
  Mg  Mg1529  1  0.87500000  0.68750000  0.43750000  1.0
  Mg  Mg1530  1  0.87500000  0.68750000  0.68750000  1.0
  Mg  Mg1531  1  0.87500000  0.68750000  0.93750000  1.0
  Mg  Mg1532  1  0.87500000  0.93750000  0.18750000  1.0
  Mg  Mg1533  1  0.87500000  0.93750000  0.43750000  1.0
  Mg  Mg1534  1  0.87500000  0.93750000  0.68750000  1.0
  Mg  Mg1535  1  0.87500000  0.93750000  0.93750000  1.0
  Mg  Mg1536  1  0.06250000  0.12500000  0.06250000  1.0
  Mg  Mg1537  1  0.06250000  0.12500000  0.31250000  1.0
  Mg  Mg1538  1  0.06250000  0.12500000  0.56250000  1.0
  Mg  Mg1539  1  0.06250000  0.12500000  0.81250000  1.0
  Mg  Mg1540  1  0.06250000  0.37500000  0.06250000  1.0
  Mg  Mg1541  1  0.06250000  0.37500000  0.31250000  1.0
  Mg  Mg1542  1  0.06250000  0.37500000  0.56250000  1.0
  Mg  Mg1543  1  0.06250000  0.37500000  0.81250000  1.0
  Mg  Mg1544  1  0.06250000  0.62500000  0.06250000  1.0
  Mg  Mg1545  1  0.06250000  0.62500000  0.31250000  1.0
  Mg  Mg1546  1  0.06250000  0.62500000  0.56250000  1.0
  Mg  Mg1547  1  0.06250000  0.62500000  0.81250000  1.0
  Mg  Mg1548  1  0.06250000  0.87500000  0.06250000  1.0
  Mg  Mg1549  1  0.06250000  0.87500000  0.31250000  1.0
  Mg  Mg1550  1  0.06250000  0.87500000  0.56250000  1.0
  Mg  Mg1551  1  0.06250000  0.87500000  0.81250000  1.0
  Mg  Mg1552  1  0.31250000  0.12500000  0.06250000  1.0
  Mg  Mg1553  1  0.31250000  0.12500000  0.31250000  1.0
  Mg  Mg1554  1  0.31250000  0.12500000  0.56250000  1.0
  Mg  Mg1555  1  0.31250000  0.12500000  0.81250000  1.0
  Mg  Mg1556  1  0.31250000  0.37500000  0.06250000  1.0
  Mg  Mg1557  1  0.31250000  0.37500000  0.31250000  1.0
  Mg  Mg1558  1  0.31250000  0.37500000  0.56250000  1.0
  Mg  Mg1559  1  0.31250000  0.37500000  0.81250000  1.0
  Mg  Mg1560  1  0.31250000  0.62500000  0.06250000  1.0
  Mg  Mg1561  1  0.31250000  0.62500000  0.31250000  1.0
  Mg  Mg1562  1  0.31250000  0.62500000  0.56250000  1.0
  Mg  Mg1563  1  0.31250000  0.62500000  0.81250000  1.0
  Mg  Mg1564  1  0.31250000  0.87500000  0.06250000  1.0
  Mg  Mg1565  1  0.31250000  0.87500000  0.31250000  1.0
  Mg  Mg1566  1  0.31250000  0.87500000  0.56250000  1.0
  Mg  Mg1567  1  0.31250000  0.87500000  0.81250000  1.0
  Mg  Mg1568  1  0.56250000  0.12500000  0.06250000  1.0
  Mg  Mg1569  1  0.56250000  0.12500000  0.31250000  1.0
  Mg  Mg1570  1  0.56250000  0.12500000  0.56250000  1.0
  Mg  Mg1571  1  0.56250000  0.12500000  0.81250000  1.0
  Mg  Mg1572  1  0.56250000  0.37500000  0.06250000  1.0
  Mg  Mg1573  1  0.56250000  0.37500000  0.31250000  1.0
  Mg  Mg1574  1  0.56250000  0.37500000  0.56250000  1.0
  Mg  Mg1575  1  0.56250000  0.37500000  0.81250000  1.0
  Mg  Mg1576  1  0.56250000  0.62500000  0.06250000  1.0
  Mg  Mg1577  1  0.56250000  0.62500000  0.31250000  1.0
  Mg  Mg1578  1  0.56250000  0.62500000  0.56250000  1.0
  Mg  Mg1579  1  0.56250000  0.62500000  0.81250000  1.0
  Mg  Mg1580  1  0.56250000  0.87500000  0.06250000  1.0
  Mg  Mg1581  1  0.56250000  0.87500000  0.31250000  1.0
  Mg  Mg1582  1  0.56250000  0.87500000  0.56250000  1.0
  Mg  Mg1583  1  0.56250000  0.87500000  0.81250000  1.0
  Mg  Mg1584  1  0.81250000  0.12500000  0.06250000  1.0
  Mg  Mg1585  1  0.81250000  0.12500000  0.31250000  1.0
  Mg  Mg1586  1  0.81250000  0.12500000  0.56250000  1.0
  Mg  Mg1587  1  0.81250000  0.12500000  0.81250000  1.0
  Mg  Mg1588  1  0.81250000  0.37500000  0.06250000  1.0
  Mg  Mg1589  1  0.81250000  0.37500000  0.31250000  1.0
  Mg  Mg1590  1  0.81250000  0.37500000  0.56250000  1.0
  Mg  Mg1591  1  0.81250000  0.37500000  0.81250000  1.0
  Mg  Mg1592  1  0.81250000  0.62500000  0.06250000  1.0
  Mg  Mg1593  1  0.81250000  0.62500000  0.31250000  1.0
  Mg  Mg1594  1  0.81250000  0.62500000  0.56250000  1.0
  Mg  Mg1595  1  0.81250000  0.62500000  0.81250000  1.0
  Mg  Mg1596  1  0.81250000  0.87500000  0.06250000  1.0
  Mg  Mg1597  1  0.81250000  0.87500000  0.31250000  1.0
  Mg  Mg1598  1  0.81250000  0.87500000  0.56250000  1.0
  Mg  Mg1599  1  0.81250000  0.87500000  0.81250000  1.0
  Mg  Mg1600  1  0.18750000  0.00000000  0.06250000  1.0
  Mg  Mg1601  1  0.18750000  0.00000000  0.31250000  1.0
  Mg  Mg1602  1  0.18750000  0.00000000  0.56250000  1.0
  Mg  Mg1603  1  0.18750000  0.00000000  0.81250000  1.0
  Mg  Mg1604  1  0.18750000  0.25000000  0.06250000  1.0
  Mg  Mg1605  1  0.18750000  0.25000000  0.31250000  1.0
  Mg  Mg1606  1  0.18750000  0.25000000  0.56250000  1.0
  Mg  Mg1607  1  0.18750000  0.25000000  0.81250000  1.0
  Mg  Mg1608  1  0.18750000  0.50000000  0.06250000  1.0
  Mg  Mg1609  1  0.18750000  0.50000000  0.31250000  1.0
  Mg  Mg1610  1  0.18750000  0.50000000  0.56250000  1.0
  Mg  Mg1611  1  0.18750000  0.50000000  0.81250000  1.0
  Mg  Mg1612  1  0.18750000  0.75000000  0.06250000  1.0
  Mg  Mg1613  1  0.18750000  0.75000000  0.31250000  1.0
  Mg  Mg1614  1  0.18750000  0.75000000  0.56250000  1.0
  Mg  Mg1615  1  0.18750000  0.75000000  0.81250000  1.0
  Mg  Mg1616  1  0.43750000  0.00000000  0.06250000  1.0
  Mg  Mg1617  1  0.43750000  0.00000000  0.31250000  1.0
  Mg  Mg1618  1  0.43750000  0.00000000  0.56250000  1.0
  Mg  Mg1619  1  0.43750000  0.00000000  0.81250000  1.0
  Mg  Mg1620  1  0.43750000  0.25000000  0.06250000  1.0
  Mg  Mg1621  1  0.43750000  0.25000000  0.31250000  1.0
  Mg  Mg1622  1  0.43750000  0.25000000  0.56250000  1.0
  Mg  Mg1623  1  0.43750000  0.25000000  0.81250000  1.0
  Mg  Mg1624  1  0.43750000  0.50000000  0.06250000  1.0
  Mg  Mg1625  1  0.43750000  0.50000000  0.31250000  1.0
  Mg  Mg1626  1  0.43750000  0.50000000  0.56250000  1.0
  Mg  Mg1627  1  0.43750000  0.50000000  0.81250000  1.0
  Mg  Mg1628  1  0.43750000  0.75000000  0.06250000  1.0
  Mg  Mg1629  1  0.43750000  0.75000000  0.31250000  1.0
  Mg  Mg1630  1  0.43750000  0.75000000  0.56250000  1.0
  Mg  Mg1631  1  0.43750000  0.75000000  0.81250000  1.0
  Mg  Mg1632  1  0.68750000  0.00000000  0.06250000  1.0
  Mg  Mg1633  1  0.68750000  0.00000000  0.31250000  1.0
  Mg  Mg1634  1  0.68750000  0.00000000  0.56250000  1.0
  Mg  Mg1635  1  0.68750000  0.00000000  0.81250000  1.0
  Mg  Mg1636  1  0.68750000  0.25000000  0.06250000  1.0
  Mg  Mg1637  1  0.68750000  0.25000000  0.31250000  1.0
  Mg  Mg1638  1  0.68750000  0.25000000  0.56250000  1.0
  Mg  Mg1639  1  0.68750000  0.25000000  0.81250000  1.0
  Mg  Mg1640  1  0.68750000  0.50000000  0.06250000  1.0
  Mg  Mg1641  1  0.68750000  0.50000000  0.31250000  1.0
  Mg  Mg1642  1  0.68750000  0.50000000  0.56250000  1.0
  Mg  Mg1643  1  0.68750000  0.50000000  0.81250000  1.0
  Mg  Mg1644  1  0.68750000  0.75000000  0.06250000  1.0
  Mg  Mg1645  1  0.68750000  0.75000000  0.31250000  1.0
  Mg  Mg1646  1  0.68750000  0.75000000  0.56250000  1.0
  Mg  Mg1647  1  0.68750000  0.75000000  0.81250000  1.0
  Mg  Mg1648  1  0.93750000  0.00000000  0.06250000  1.0
  Mg  Mg1649  1  0.93750000  0.00000000  0.31250000  1.0
  Mg  Mg1650  1  0.93750000  0.00000000  0.56250000  1.0
  Mg  Mg1651  1  0.93750000  0.00000000  0.81250000  1.0
  Mg  Mg1652  1  0.93750000  0.25000000  0.06250000  1.0
  Mg  Mg1653  1  0.93750000  0.25000000  0.31250000  1.0
  Mg  Mg1654  1  0.93750000  0.25000000  0.56250000  1.0
  Mg  Mg1655  1  0.93750000  0.25000000  0.81250000  1.0
  Mg  Mg1656  1  0.93750000  0.50000000  0.06250000  1.0
  Mg  Mg1657  1  0.93750000  0.50000000  0.31250000  1.0
  Mg  Mg1658  1  0.93750000  0.50000000  0.56250000  1.0
  Mg  Mg1659  1  0.93750000  0.50000000  0.81250000  1.0
  Mg  Mg1660  1  0.93750000  0.75000000  0.06250000  1.0
  Mg  Mg1661  1  0.93750000  0.75000000  0.31250000  1.0
  Mg  Mg1662  1  0.93750000  0.75000000  0.56250000  1.0
  Mg  Mg1663  1  0.93750000  0.75000000  0.81250000  1.0
  Mg  Mg1664  1  0.18750000  0.12500000  0.18750000  1.0
  Mg  Mg1665  1  0.18750000  0.12500000  0.43750000  1.0
  Mg  Mg1666  1  0.18750000  0.12500000  0.68750000  1.0
  Mg  Mg1667  1  0.18750000  0.12500000  0.93750000  1.0
  Mg  Mg1668  1  0.18750000  0.37500000  0.18750000  1.0
  Mg  Mg1669  1  0.18750000  0.37500000  0.43750000  1.0
  Mg  Mg1670  1  0.18750000  0.37500000  0.68750000  1.0
  Mg  Mg1671  1  0.18750000  0.37500000  0.93750000  1.0
  Mg  Mg1672  1  0.18750000  0.62500000  0.18750000  1.0
  Mg  Mg1673  1  0.18750000  0.62500000  0.43750000  1.0
  Mg  Mg1674  1  0.18750000  0.62500000  0.68750000  1.0
  Mg  Mg1675  1  0.18750000  0.62500000  0.93750000  1.0
  Mg  Mg1676  1  0.18750000  0.87500000  0.18750000  1.0
  Mg  Mg1677  1  0.18750000  0.87500000  0.43750000  1.0
  Mg  Mg1678  1  0.18750000  0.87500000  0.68750000  1.0
  Mg  Mg1679  1  0.18750000  0.87500000  0.93750000  1.0
  Mg  Mg1680  1  0.43750000  0.12500000  0.18750000  1.0
  Mg  Mg1681  1  0.43750000  0.12500000  0.43750000  1.0
  Mg  Mg1682  1  0.43750000  0.12500000  0.68750000  1.0
  Mg  Mg1683  1  0.43750000  0.12500000  0.93750000  1.0
  Mg  Mg1684  1  0.43750000  0.37500000  0.18750000  1.0
  Mg  Mg1685  1  0.43750000  0.37500000  0.43750000  1.0
  Mg  Mg1686  1  0.43750000  0.37500000  0.68750000  1.0
  Mg  Mg1687  1  0.43750000  0.37500000  0.93750000  1.0
  Mg  Mg1688  1  0.43750000  0.62500000  0.18750000  1.0
  Mg  Mg1689  1  0.43750000  0.62500000  0.43750000  1.0
  Mg  Mg1690  1  0.43750000  0.62500000  0.68750000  1.0
  Mg  Mg1691  1  0.43750000  0.62500000  0.93750000  1.0
  Mg  Mg1692  1  0.43750000  0.87500000  0.18750000  1.0
  Mg  Mg1693  1  0.43750000  0.87500000  0.43750000  1.0
  Mg  Mg1694  1  0.43750000  0.87500000  0.68750000  1.0
  Mg  Mg1695  1  0.43750000  0.87500000  0.93750000  1.0
  Mg  Mg1696  1  0.68750000  0.12500000  0.18750000  1.0
  Mg  Mg1697  1  0.68750000  0.12500000  0.43750000  1.0
  Mg  Mg1698  1  0.68750000  0.12500000  0.68750000  1.0
  Mg  Mg1699  1  0.68750000  0.12500000  0.93750000  1.0
  Mg  Mg1700  1  0.68750000  0.37500000  0.18750000  1.0
  Mg  Mg1701  1  0.68750000  0.37500000  0.43750000  1.0
  Mg  Mg1702  1  0.68750000  0.37500000  0.68750000  1.0
  Mg  Mg1703  1  0.68750000  0.37500000  0.93750000  1.0
  Mg  Mg1704  1  0.68750000  0.62500000  0.18750000  1.0
  Mg  Mg1705  1  0.68750000  0.62500000  0.43750000  1.0
  Mg  Mg1706  1  0.68750000  0.62500000  0.68750000  1.0
  Mg  Mg1707  1  0.68750000  0.62500000  0.93750000  1.0
  Mg  Mg1708  1  0.68750000  0.87500000  0.18750000  1.0
  Mg  Mg1709  1  0.68750000  0.87500000  0.43750000  1.0
  Mg  Mg1710  1  0.68750000  0.87500000  0.68750000  1.0
  Mg  Mg1711  1  0.68750000  0.87500000  0.93750000  1.0
  Mg  Mg1712  1  0.93750000  0.12500000  0.18750000  1.0
  Mg  Mg1713  1  0.93750000  0.12500000  0.43750000  1.0
  Mg  Mg1714  1  0.93750000  0.12500000  0.68750000  1.0
  Mg  Mg1715  1  0.93750000  0.12500000  0.93750000  1.0
  Mg  Mg1716  1  0.93750000  0.37500000  0.18750000  1.0
  Mg  Mg1717  1  0.93750000  0.37500000  0.43750000  1.0
  Mg  Mg1718  1  0.93750000  0.37500000  0.68750000  1.0
  Mg  Mg1719  1  0.93750000  0.37500000  0.93750000  1.0
  Mg  Mg1720  1  0.93750000  0.62500000  0.18750000  1.0
  Mg  Mg1721  1  0.93750000  0.62500000  0.43750000  1.0
  Mg  Mg1722  1  0.93750000  0.62500000  0.68750000  1.0
  Mg  Mg1723  1  0.93750000  0.62500000  0.93750000  1.0
  Mg  Mg1724  1  0.93750000  0.87500000  0.18750000  1.0
  Mg  Mg1725  1  0.93750000  0.87500000  0.43750000  1.0
  Mg  Mg1726  1  0.93750000  0.87500000  0.68750000  1.0
  Mg  Mg1727  1  0.93750000  0.87500000  0.93750000  1.0
  Mg  Mg1728  1  0.06250000  0.00000000  0.18750000  1.0
  Mg  Mg1729  1  0.06250000  0.00000000  0.43750000  1.0
  Mg  Mg1730  1  0.06250000  0.00000000  0.68750000  1.0
  Mg  Mg1731  1  0.06250000  0.00000000  0.93750000  1.0
  Mg  Mg1732  1  0.06250000  0.25000000  0.18750000  1.0
  Mg  Mg1733  1  0.06250000  0.25000000  0.43750000  1.0
  Mg  Mg1734  1  0.06250000  0.25000000  0.68750000  1.0
  Mg  Mg1735  1  0.06250000  0.25000000  0.93750000  1.0
  Mg  Mg1736  1  0.06250000  0.50000000  0.18750000  1.0
  Mg  Mg1737  1  0.06250000  0.50000000  0.43750000  1.0
  Mg  Mg1738  1  0.06250000  0.50000000  0.68750000  1.0
  Mg  Mg1739  1  0.06250000  0.50000000  0.93750000  1.0
  Mg  Mg1740  1  0.06250000  0.75000000  0.18750000  1.0
  Mg  Mg1741  1  0.06250000  0.75000000  0.43750000  1.0
  Mg  Mg1742  1  0.06250000  0.75000000  0.68750000  1.0
  Mg  Mg1743  1  0.06250000  0.75000000  0.93750000  1.0
  Mg  Mg1744  1  0.31250000  0.00000000  0.18750000  1.0
  Mg  Mg1745  1  0.31250000  0.00000000  0.43750000  1.0
  Mg  Mg1746  1  0.31250000  0.00000000  0.68750000  1.0
  Mg  Mg1747  1  0.31250000  0.00000000  0.93750000  1.0
  Mg  Mg1748  1  0.31250000  0.25000000  0.18750000  1.0
  Mg  Mg1749  1  0.31250000  0.25000000  0.43750000  1.0
  Mg  Mg1750  1  0.31250000  0.25000000  0.68750000  1.0
  Mg  Mg1751  1  0.31250000  0.25000000  0.93750000  1.0
  Mg  Mg1752  1  0.31250000  0.50000000  0.18750000  1.0
  Mg  Mg1753  1  0.31250000  0.50000000  0.43750000  1.0
  Mg  Mg1754  1  0.31250000  0.50000000  0.68750000  1.0
  Mg  Mg1755  1  0.31250000  0.50000000  0.93750000  1.0
  Mg  Mg1756  1  0.31250000  0.75000000  0.18750000  1.0
  Mg  Mg1757  1  0.31250000  0.75000000  0.43750000  1.0
  Mg  Mg1758  1  0.31250000  0.75000000  0.68750000  1.0
  Mg  Mg1759  1  0.31250000  0.75000000  0.93750000  1.0
  Mg  Mg1760  1  0.56250000  0.00000000  0.18750000  1.0
  Mg  Mg1761  1  0.56250000  0.00000000  0.43750000  1.0
  Mg  Mg1762  1  0.56250000  0.00000000  0.68750000  1.0
  Mg  Mg1763  1  0.56250000  0.00000000  0.93750000  1.0
  Mg  Mg1764  1  0.56250000  0.25000000  0.18750000  1.0
  Mg  Mg1765  1  0.56250000  0.25000000  0.43750000  1.0
  Mg  Mg1766  1  0.56250000  0.25000000  0.68750000  1.0
  Mg  Mg1767  1  0.56250000  0.25000000  0.93750000  1.0
  Mg  Mg1768  1  0.56250000  0.50000000  0.18750000  1.0
  Mg  Mg1769  1  0.56250000  0.50000000  0.43750000  1.0
  Mg  Mg1770  1  0.56250000  0.50000000  0.68750000  1.0
  Mg  Mg1771  1  0.56250000  0.50000000  0.93750000  1.0
  Mg  Mg1772  1  0.56250000  0.75000000  0.18750000  1.0
  Mg  Mg1773  1  0.56250000  0.75000000  0.43750000  1.0
  Mg  Mg1774  1  0.56250000  0.75000000  0.68750000  1.0
  Mg  Mg1775  1  0.56250000  0.75000000  0.93750000  1.0
  Mg  Mg1776  1  0.81250000  0.00000000  0.18750000  1.0
  Mg  Mg1777  1  0.81250000  0.00000000  0.43750000  1.0
  Mg  Mg1778  1  0.81250000  0.00000000  0.68750000  1.0
  Mg  Mg1779  1  0.81250000  0.00000000  0.93750000  1.0
  Mg  Mg1780  1  0.81250000  0.25000000  0.18750000  1.0
  Mg  Mg1781  1  0.81250000  0.25000000  0.43750000  1.0
  Mg  Mg1782  1  0.81250000  0.25000000  0.68750000  1.0
  Mg  Mg1783  1  0.81250000  0.25000000  0.93750000  1.0
  Mg  Mg1784  1  0.81250000  0.50000000  0.18750000  1.0
  Mg  Mg1785  1  0.81250000  0.50000000  0.43750000  1.0
  Mg  Mg1786  1  0.81250000  0.50000000  0.68750000  1.0
  Mg  Mg1787  1  0.81250000  0.50000000  0.93750000  1.0
  Mg  Mg1788  1  0.81250000  0.75000000  0.18750000  1.0
  Mg  Mg1789  1  0.81250000  0.75000000  0.43750000  1.0
  Mg  Mg1790  1  0.81250000  0.75000000  0.68750000  1.0
  Mg  Mg1791  1  0.81250000  0.75000000  0.93750000  1.0
  Mg  Mg1792  1  0.06250000  0.06250000  0.12500000  1.0
  Mg  Mg1793  1  0.06250000  0.06250000  0.37500000  1.0
  Mg  Mg1794  1  0.06250000  0.06250000  0.62500000  1.0
  Mg  Mg1795  1  0.06250000  0.06250000  0.87500000  1.0
  Mg  Mg1796  1  0.06250000  0.31250000  0.12500000  1.0
  Mg  Mg1797  1  0.06250000  0.31250000  0.37500000  1.0
  Mg  Mg1798  1  0.06250000  0.31250000  0.62500000  1.0
  Mg  Mg1799  1  0.06250000  0.31250000  0.87500000  1.0
  Mg  Mg1800  1  0.06250000  0.56250000  0.12500000  1.0
  Mg  Mg1801  1  0.06250000  0.56250000  0.37500000  1.0
  Mg  Mg1802  1  0.06250000  0.56250000  0.62500000  1.0
  Mg  Mg1803  1  0.06250000  0.56250000  0.87500000  1.0
  Mg  Mg1804  1  0.06250000  0.81250000  0.12500000  1.0
  Mg  Mg1805  1  0.06250000  0.81250000  0.37500000  1.0
  Mg  Mg1806  1  0.06250000  0.81250000  0.62500000  1.0
  Mg  Mg1807  1  0.06250000  0.81250000  0.87500000  1.0
  Mg  Mg1808  1  0.31250000  0.06250000  0.12500000  1.0
  Mg  Mg1809  1  0.31250000  0.06250000  0.37500000  1.0
  Mg  Mg1810  1  0.31250000  0.06250000  0.62500000  1.0
  Mg  Mg1811  1  0.31250000  0.06250000  0.87500000  1.0
  Mg  Mg1812  1  0.31250000  0.31250000  0.12500000  1.0
  Mg  Mg1813  1  0.31250000  0.31250000  0.37500000  1.0
  Mg  Mg1814  1  0.31250000  0.31250000  0.62500000  1.0
  Mg  Mg1815  1  0.31250000  0.31250000  0.87500000  1.0
  Mg  Mg1816  1  0.31250000  0.56250000  0.12500000  1.0
  Mg  Mg1817  1  0.31250000  0.56250000  0.37500000  1.0
  Mg  Mg1818  1  0.31250000  0.56250000  0.62500000  1.0
  Mg  Mg1819  1  0.31250000  0.56250000  0.87500000  1.0
  Mg  Mg1820  1  0.31250000  0.81250000  0.12500000  1.0
  Mg  Mg1821  1  0.31250000  0.81250000  0.37500000  1.0
  Mg  Mg1822  1  0.31250000  0.81250000  0.62500000  1.0
  Mg  Mg1823  1  0.31250000  0.81250000  0.87500000  1.0
  Mg  Mg1824  1  0.56250000  0.06250000  0.12500000  1.0
  Mg  Mg1825  1  0.56250000  0.06250000  0.37500000  1.0
  Mg  Mg1826  1  0.56250000  0.06250000  0.62500000  1.0
  Mg  Mg1827  1  0.56250000  0.06250000  0.87500000  1.0
  Mg  Mg1828  1  0.56250000  0.31250000  0.12500000  1.0
  Mg  Mg1829  1  0.56250000  0.31250000  0.37500000  1.0
  Mg  Mg1830  1  0.56250000  0.31250000  0.62500000  1.0
  Mg  Mg1831  1  0.56250000  0.31250000  0.87500000  1.0
  Mg  Mg1832  1  0.56250000  0.56250000  0.12500000  1.0
  Mg  Mg1833  1  0.56250000  0.56250000  0.37500000  1.0
  Mg  Mg1834  1  0.56250000  0.56250000  0.62500000  1.0
  Mg  Mg1835  1  0.56250000  0.56250000  0.87500000  1.0
  Mg  Mg1836  1  0.56250000  0.81250000  0.12500000  1.0
  Mg  Mg1837  1  0.56250000  0.81250000  0.37500000  1.0
  Mg  Mg1838  1  0.56250000  0.81250000  0.62500000  1.0
  Mg  Mg1839  1  0.56250000  0.81250000  0.87500000  1.0
  Mg  Mg1840  1  0.81250000  0.06250000  0.12500000  1.0
  Mg  Mg1841  1  0.81250000  0.06250000  0.37500000  1.0
  Mg  Mg1842  1  0.81250000  0.06250000  0.62500000  1.0
  Mg  Mg1843  1  0.81250000  0.06250000  0.87500000  1.0
  Mg  Mg1844  1  0.81250000  0.31250000  0.12500000  1.0
  Mg  Mg1845  1  0.81250000  0.31250000  0.37500000  1.0
  Mg  Mg1846  1  0.81250000  0.31250000  0.62500000  1.0
  Mg  Mg1847  1  0.81250000  0.31250000  0.87500000  1.0
  Mg  Mg1848  1  0.81250000  0.56250000  0.12500000  1.0
  Mg  Mg1849  1  0.81250000  0.56250000  0.37500000  1.0
  Mg  Mg1850  1  0.81250000  0.56250000  0.62500000  1.0
  Mg  Mg1851  1  0.81250000  0.56250000  0.87500000  1.0
  Mg  Mg1852  1  0.81250000  0.81250000  0.12500000  1.0
  Mg  Mg1853  1  0.81250000  0.81250000  0.37500000  1.0
  Mg  Mg1854  1  0.81250000  0.81250000  0.62500000  1.0
  Mg  Mg1855  1  0.81250000  0.81250000  0.87500000  1.0
  Mg  Mg1856  1  0.18750000  0.18750000  0.12500000  1.0
  Mg  Mg1857  1  0.18750000  0.18750000  0.37500000  1.0
  Mg  Mg1858  1  0.18750000  0.18750000  0.62500000  1.0
  Mg  Mg1859  1  0.18750000  0.18750000  0.87500000  1.0
  Mg  Mg1860  1  0.18750000  0.43750000  0.12500000  1.0
  Mg  Mg1861  1  0.18750000  0.43750000  0.37500000  1.0
  Mg  Mg1862  1  0.18750000  0.43750000  0.62500000  1.0
  Mg  Mg1863  1  0.18750000  0.43750000  0.87500000  1.0
  Mg  Mg1864  1  0.18750000  0.68750000  0.12500000  1.0
  Mg  Mg1865  1  0.18750000  0.68750000  0.37500000  1.0
  Mg  Mg1866  1  0.18750000  0.68750000  0.62500000  1.0
  Mg  Mg1867  1  0.18750000  0.68750000  0.87500000  1.0
  Mg  Mg1868  1  0.18750000  0.93750000  0.12500000  1.0
  Mg  Mg1869  1  0.18750000  0.93750000  0.37500000  1.0
  Mg  Mg1870  1  0.18750000  0.93750000  0.62500000  1.0
  Mg  Mg1871  1  0.18750000  0.93750000  0.87500000  1.0
  Mg  Mg1872  1  0.43750000  0.18750000  0.12500000  1.0
  Mg  Mg1873  1  0.43750000  0.18750000  0.37500000  1.0
  Mg  Mg1874  1  0.43750000  0.18750000  0.62500000  1.0
  Mg  Mg1875  1  0.43750000  0.18750000  0.87500000  1.0
  Mg  Mg1876  1  0.43750000  0.43750000  0.12500000  1.0
  Mg  Mg1877  1  0.43750000  0.43750000  0.37500000  1.0
  Mg  Mg1878  1  0.43750000  0.43750000  0.62500000  1.0
  Mg  Mg1879  1  0.43750000  0.43750000  0.87500000  1.0
  Mg  Mg1880  1  0.43750000  0.68750000  0.12500000  1.0
  Mg  Mg1881  1  0.43750000  0.68750000  0.37500000  1.0
  Mg  Mg1882  1  0.43750000  0.68750000  0.62500000  1.0
  Mg  Mg1883  1  0.43750000  0.68750000  0.87500000  1.0
  Mg  Mg1884  1  0.43750000  0.93750000  0.12500000  1.0
  Mg  Mg1885  1  0.43750000  0.93750000  0.37500000  1.0
  Mg  Mg1886  1  0.43750000  0.93750000  0.62500000  1.0
  Mg  Mg1887  1  0.43750000  0.93750000  0.87500000  1.0
  Mg  Mg1888  1  0.68750000  0.18750000  0.12500000  1.0
  Mg  Mg1889  1  0.68750000  0.18750000  0.37500000  1.0
  Mg  Mg1890  1  0.68750000  0.18750000  0.62500000  1.0
  Mg  Mg1891  1  0.68750000  0.18750000  0.87500000  1.0
  Mg  Mg1892  1  0.68750000  0.43750000  0.12500000  1.0
  Mg  Mg1893  1  0.68750000  0.43750000  0.37500000  1.0
  Mg  Mg1894  1  0.68750000  0.43750000  0.62500000  1.0
  Mg  Mg1895  1  0.68750000  0.43750000  0.87500000  1.0
  Mg  Mg1896  1  0.68750000  0.68750000  0.12500000  1.0
  Mg  Mg1897  1  0.68750000  0.68750000  0.37500000  1.0
  Mg  Mg1898  1  0.68750000  0.68750000  0.62500000  1.0
  Mg  Mg1899  1  0.68750000  0.68750000  0.87500000  1.0
  Mg  Mg1900  1  0.68750000  0.93750000  0.12500000  1.0
  Mg  Mg1901  1  0.68750000  0.93750000  0.37500000  1.0
  Mg  Mg1902  1  0.68750000  0.93750000  0.62500000  1.0
  Mg  Mg1903  1  0.68750000  0.93750000  0.87500000  1.0
  Mg  Mg1904  1  0.93750000  0.18750000  0.12500000  1.0
  Mg  Mg1905  1  0.93750000  0.18750000  0.37500000  1.0
  Mg  Mg1906  1  0.93750000  0.18750000  0.62500000  1.0
  Mg  Mg1907  1  0.93750000  0.18750000  0.87500000  1.0
  Mg  Mg1908  1  0.93750000  0.43750000  0.12500000  1.0
  Mg  Mg1909  1  0.93750000  0.43750000  0.37500000  1.0
  Mg  Mg1910  1  0.93750000  0.43750000  0.62500000  1.0
  Mg  Mg1911  1  0.93750000  0.43750000  0.87500000  1.0
  Mg  Mg1912  1  0.93750000  0.68750000  0.12500000  1.0
  Mg  Mg1913  1  0.93750000  0.68750000  0.37500000  1.0
  Mg  Mg1914  1  0.93750000  0.68750000  0.62500000  1.0
  Mg  Mg1915  1  0.93750000  0.68750000  0.87500000  1.0
  Mg  Mg1916  1  0.93750000  0.93750000  0.12500000  1.0
  Mg  Mg1917  1  0.93750000  0.93750000  0.37500000  1.0
  Mg  Mg1918  1  0.93750000  0.93750000  0.62500000  1.0
  Mg  Mg1919  1  0.93750000  0.93750000  0.87500000  1.0
  Mg  Mg1920  1  0.18750000  0.06250000  0.00000000  1.0
  Mg  Mg1921  1  0.18750000  0.06250000  0.25000000  1.0
  Mg  Mg1922  1  0.18750000  0.06250000  0.50000000  1.0
  Mg  Mg1923  1  0.18750000  0.06250000  0.75000000  1.0
  Mg  Mg1924  1  0.18750000  0.31250000  0.00000000  1.0
  Mg  Mg1925  1  0.18750000  0.31250000  0.25000000  1.0
  Mg  Mg1926  1  0.18750000  0.31250000  0.50000000  1.0
  Mg  Mg1927  1  0.18750000  0.31250000  0.75000000  1.0
  Mg  Mg1928  1  0.18750000  0.56250000  0.00000000  1.0
  Mg  Mg1929  1  0.18750000  0.56250000  0.25000000  1.0
  Mg  Mg1930  1  0.18750000  0.56250000  0.50000000  1.0
  Mg  Mg1931  1  0.18750000  0.56250000  0.75000000  1.0
  Mg  Mg1932  1  0.18750000  0.81250000  1.00000000  1.0
  Mg  Mg1933  1  0.18750000  0.81250000  0.25000000  1.0
  Mg  Mg1934  1  0.18750000  0.81250000  0.50000000  1.0
  Mg  Mg1935  1  0.18750000  0.81250000  0.75000000  1.0
  Mg  Mg1936  1  0.43750000  0.06250000  0.00000000  1.0
  Mg  Mg1937  1  0.43750000  0.06250000  0.25000000  1.0
  Mg  Mg1938  1  0.43750000  0.06250000  0.50000000  1.0
  Mg  Mg1939  1  0.43750000  0.06250000  0.75000000  1.0
  Mg  Mg1940  1  0.43750000  0.31250000  0.00000000  1.0
  Mg  Mg1941  1  0.43750000  0.31250000  0.25000000  1.0
  Mg  Mg1942  1  0.43750000  0.31250000  0.50000000  1.0
  Mg  Mg1943  1  0.43750000  0.31250000  0.75000000  1.0
  Mg  Mg1944  1  0.43750000  0.56250000  0.00000000  1.0
  Mg  Mg1945  1  0.43750000  0.56250000  0.25000000  1.0
  Mg  Mg1946  1  0.43750000  0.56250000  0.50000000  1.0
  Mg  Mg1947  1  0.43750000  0.56250000  0.75000000  1.0
  Mg  Mg1948  1  0.43750000  0.81250000  0.00000000  1.0
  Mg  Mg1949  1  0.43750000  0.81250000  0.25000000  1.0
  Mg  Mg1950  1  0.43750000  0.81250000  0.50000000  1.0
  Mg  Mg1951  1  0.43750000  0.81250000  0.75000000  1.0
  Mg  Mg1952  1  0.68750000  0.06250000  0.00000000  1.0
  Mg  Mg1953  1  0.68750000  0.06250000  0.25000000  1.0
  Mg  Mg1954  1  0.68750000  0.06250000  0.50000000  1.0
  Mg  Mg1955  1  0.68750000  0.06250000  0.75000000  1.0
  Mg  Mg1956  1  0.68750000  0.31250000  0.00000000  1.0
  Mg  Mg1957  1  0.68750000  0.31250000  0.25000000  1.0
  Mg  Mg1958  1  0.68750000  0.31250000  0.50000000  1.0
  Mg  Mg1959  1  0.68750000  0.31250000  0.75000000  1.0
  Mg  Mg1960  1  0.68750000  0.56250000  0.00000000  1.0
  Mg  Mg1961  1  0.68750000  0.56250000  0.25000000  1.0
  Mg  Mg1962  1  0.68750000  0.56250000  0.50000000  1.0
  Mg  Mg1963  1  0.68750000  0.56250000  0.75000000  1.0
  Mg  Mg1964  1  0.68750000  0.81250000  0.00000000  1.0
  Mg  Mg1965  1  0.68750000  0.81250000  0.25000000  1.0
  Mg  Mg1966  1  0.68750000  0.81250000  0.50000000  1.0
  Mg  Mg1967  1  0.68750000  0.81250000  0.75000000  1.0
  Mg  Mg1968  1  0.93750000  0.06250000  0.00000000  1.0
  Mg  Mg1969  1  0.93750000  0.06250000  0.25000000  1.0
  Mg  Mg1970  1  0.93750000  0.06250000  0.50000000  1.0
  Mg  Mg1971  1  0.93750000  0.06250000  0.75000000  1.0
  Mg  Mg1972  1  0.93750000  0.31250000  0.00000000  1.0
  Mg  Mg1973  1  0.93750000  0.31250000  0.25000000  1.0
  Mg  Mg1974  1  0.93750000  0.31250000  0.50000000  1.0
  Mg  Mg1975  1  0.93750000  0.31250000  0.75000000  1.0
  Mg  Mg1976  1  0.93750000  0.56250000  0.00000000  1.0
  Mg  Mg1977  1  0.93750000  0.56250000  0.25000000  1.0
  Mg  Mg1978  1  0.93750000  0.56250000  0.50000000  1.0
  Mg  Mg1979  1  0.93750000  0.56250000  0.75000000  1.0
  Mg  Mg1980  1  0.93750000  0.81250000  0.00000000  1.0
  Mg  Mg1981  1  0.93750000  0.81250000  0.25000000  1.0
  Mg  Mg1982  1  0.93750000  0.81250000  0.50000000  1.0
  Mg  Mg1983  1  0.93750000  0.81250000  0.75000000  1.0
  Mg  Mg1984  1  0.06250000  0.18750000  0.00000000  1.0
  Mg  Mg1985  1  0.06250000  0.18750000  0.25000000  1.0
  Mg  Mg1986  1  0.06250000  0.18750000  0.50000000  1.0
  Mg  Mg1987  1  0.06250000  0.18750000  0.75000000  1.0
  Mg  Mg1988  1  0.06250000  0.43750000  0.00000000  1.0
  Mg  Mg1989  1  0.06250000  0.43750000  0.25000000  1.0
  Mg  Mg1990  1  0.06250000  0.43750000  0.50000000  1.0
  Mg  Mg1991  1  0.06250000  0.43750000  0.75000000  1.0
  Mg  Mg1992  1  0.06250000  0.68750000  0.00000000  1.0
  Mg  Mg1993  1  0.06250000  0.68750000  0.25000000  1.0
  Mg  Mg1994  1  0.06250000  0.68750000  0.50000000  1.0
  Mg  Mg1995  1  0.06250000  0.68750000  0.75000000  1.0
  Mg  Mg1996  1  0.06250000  0.93750000  0.00000000  1.0
  Mg  Mg1997  1  0.06250000  0.93750000  0.25000000  1.0
  Mg  Mg1998  1  0.06250000  0.93750000  0.50000000  1.0
  Mg  Mg1999  1  0.06250000  0.93750000  0.75000000  1.0
  Mg  Mg2000  1  0.31250000  0.18750000  0.00000000  1.0
  Mg  Mg2001  1  0.31250000  0.18750000  0.25000000  1.0
  Mg  Mg2002  1  0.31250000  0.18750000  0.50000000  1.0
  Mg  Mg2003  1  0.31250000  0.18750000  0.75000000  1.0
  Mg  Mg2004  1  0.31250000  0.43750000  0.00000000  1.0
  Mg  Mg2005  1  0.31250000  0.43750000  0.25000000  1.0
  Mg  Mg2006  1  0.31250000  0.43750000  0.50000000  1.0
  Mg  Mg2007  1  0.31250000  0.43750000  0.75000000  1.0
  Mg  Mg2008  1  0.31250000  0.68750000  0.00000000  1.0
  Mg  Mg2009  1  0.31250000  0.68750000  0.25000000  1.0
  Mg  Mg2010  1  0.31250000  0.68750000  0.50000000  1.0
  Mg  Mg2011  1  0.31250000  0.68750000  0.75000000  1.0
  Mg  Mg2012  1  0.31250000  0.93750000  0.00000000  1.0
  Mg  Mg2013  1  0.31250000  0.93750000  0.25000000  1.0
  Mg  Mg2014  1  0.31250000  0.93750000  0.50000000  1.0
  Mg  Mg2015  1  0.31250000  0.93750000  0.75000000  1.0
  Mg  Mg2016  1  0.56250000  0.18750000  0.00000000  1.0
  Mg  Mg2017  1  0.56250000  0.18750000  0.25000000  1.0
  Mg  Mg2018  1  0.56250000  0.18750000  0.50000000  1.0
  Mg  Mg2019  1  0.56250000  0.18750000  0.75000000  1.0
  Mg  Mg2020  1  0.56250000  0.43750000  0.00000000  1.0
  Mg  Mg2021  1  0.56250000  0.43750000  0.25000000  1.0
  Mg  Mg2022  1  0.56250000  0.43750000  0.50000000  1.0
  Mg  Mg2023  1  0.56250000  0.43750000  0.75000000  1.0
  Mg  Mg2024  1  0.56250000  0.68750000  0.00000000  1.0
  Mg  Mg2025  1  0.56250000  0.68750000  0.25000000  1.0
  Mg  Mg2026  1  0.56250000  0.68750000  0.50000000  1.0
  Mg  Mg2027  1  0.56250000  0.68750000  0.75000000  1.0
  Mg  Mg2028  1  0.56250000  0.93750000  0.00000000  1.0
  Mg  Mg2029  1  0.56250000  0.93750000  0.25000000  1.0
  Mg  Mg2030  1  0.56250000  0.93750000  0.50000000  1.0
  Mg  Mg2031  1  0.56250000  0.93750000  0.75000000  1.0
  Mg  Mg2032  1  0.81250000  0.18750000  0.00000000  1.0
  Mg  Mg2033  1  0.81250000  0.18750000  0.25000000  1.0
  Mg  Mg2034  1  0.81250000  0.18750000  0.50000000  1.0
  Mg  Mg2035  1  0.81250000  0.18750000  0.75000000  1.0
  Mg  Mg2036  1  0.81250000  0.43750000  0.00000000  1.0
  Mg  Mg2037  1  0.81250000  0.43750000  0.25000000  1.0
  Mg  Mg2038  1  0.81250000  0.43750000  0.50000000  1.0
  Mg  Mg2039  1  0.81250000  0.43750000  0.75000000  1.0
  Mg  Mg2040  1  0.81250000  0.68750000  0.00000000  1.0
  Mg  Mg2041  1  0.81250000  0.68750000  0.25000000  1.0
  Mg  Mg2042  1  0.81250000  0.68750000  0.50000000  1.0
  Mg  Mg2043  1  0.81250000  0.68750000  0.75000000  1.0
  Mg  Mg2044  1  0.81250000  0.93750000  0.00000000  1.0
  Mg  Mg2045  1  0.81250000  0.93750000  0.25000000  1.0
  Mg  Mg2046  1  0.81250000  0.93750000  0.50000000  1.0
  Mg  Mg2047  1  0.81250000  0.93750000  0.75000000  1.0
  Be  Be2048  1  0.06250000  0.06250000  0.00000000  1.0
  Be  Be2049  1  0.06250000  0.06250000  0.25000000  1.0
  Be  Be2050  1  0.06250000  0.06250000  0.50000000  1.0
  Be  Be2051  1  0.06250000  0.06250000  0.75000000  1.0
  Be  Be2052  1  0.06250000  0.31250000  0.00000000  1.0
  Be  Be2053  1  0.06250000  0.31250000  0.25000000  1.0
  Be  Be2054  1  0.06250000  0.31250000  0.50000000  1.0
  Be  Be2055  1  0.06250000  0.31250000  0.75000000  1.0
  Be  Be2056  1  0.06250000  0.56250000  0.00000000  1.0
  Be  Be2057  1  0.06250000  0.56250000  0.25000000  1.0
  Be  Be2058  1  0.06250000  0.56250000  0.50000000  1.0
  Be  Be2059  1  0.06250000  0.56250000  0.75000000  1.0
  Be  Be2060  1  0.06250000  0.81250000  1.00000000  1.0
  Be  Be2061  1  0.06250000  0.81250000  0.25000000  1.0
  Be  Be2062  1  0.06250000  0.81250000  0.50000000  1.0
  Be  Be2063  1  0.06250000  0.81250000  0.75000000  1.0
  Be  Be2064  1  0.31250000  0.06250000  0.00000000  1.0
  Be  Be2065  1  0.31250000  0.06250000  0.25000000  1.0
  Be  Be2066  1  0.31250000  0.06250000  0.50000000  1.0
  Be  Be2067  1  0.31250000  0.06250000  0.75000000  1.0
  Be  Be2068  1  0.31250000  0.31250000  0.00000000  1.0
  Be  Be2069  1  0.31250000  0.31250000  0.25000000  1.0
  Be  Be2070  1  0.31250000  0.31250000  0.50000000  1.0
  Be  Be2071  1  0.31250000  0.31250000  0.75000000  1.0
  Be  Be2072  1  0.31250000  0.56250000  0.00000000  1.0
  Be  Be2073  1  0.31250000  0.56250000  0.25000000  1.0
  Be  Be2074  1  0.31250000  0.56250000  0.50000000  1.0
  Be  Be2075  1  0.31250000  0.56250000  0.75000000  1.0
  Be  Be2076  1  0.31250000  0.81250000  0.00000000  1.0
  Be  Be2077  1  0.31250000  0.81250000  0.25000000  1.0
  Be  Be2078  1  0.31250000  0.81250000  0.50000000  1.0
  Be  Be2079  1  0.31250000  0.81250000  0.75000000  1.0
  Be  Be2080  1  0.56250000  0.06250000  0.00000000  1.0
  Be  Be2081  1  0.56250000  0.06250000  0.25000000  1.0
  Be  Be2082  1  0.56250000  0.06250000  0.50000000  1.0
  Be  Be2083  1  0.56250000  0.06250000  0.75000000  1.0
  Be  Be2084  1  0.56250000  0.31250000  0.00000000  1.0
  Be  Be2085  1  0.56250000  0.31250000  0.25000000  1.0
  Be  Be2086  1  0.56250000  0.31250000  0.50000000  1.0
  Be  Be2087  1  0.56250000  0.31250000  0.75000000  1.0
  Be  Be2088  1  0.56250000  0.56250000  0.00000000  1.0
  Be  Be2089  1  0.56250000  0.56250000  0.25000000  1.0
  Be  Be2090  1  0.56250000  0.56250000  0.50000000  1.0
  Be  Be2091  1  0.56250000  0.56250000  0.75000000  1.0
  Be  Be2092  1  0.56250000  0.81250000  0.00000000  1.0
  Be  Be2093  1  0.56250000  0.81250000  0.25000000  1.0
  Be  Be2094  1  0.56250000  0.81250000  0.50000000  1.0
  Be  Be2095  1  0.56250000  0.81250000  0.75000000  1.0
  Be  Be2096  1  0.81250000  0.06250000  1.00000000  1.0
  Be  Be2097  1  0.81250000  0.06250000  0.25000000  1.0
  Be  Be2098  1  0.81250000  0.06250000  0.50000000  1.0
  Be  Be2099  1  0.81250000  0.06250000  0.75000000  1.0
  Be  Be2100  1  0.81250000  0.31250000  1.00000000  1.0
  Be  Be2101  1  0.81250000  0.31250000  0.25000000  1.0
  Be  Be2102  1  0.81250000  0.31250000  0.50000000  1.0
  Be  Be2103  1  0.81250000  0.31250000  0.75000000  1.0
  Be  Be2104  1  0.81250000  0.56250000  0.00000000  1.0
  Be  Be2105  1  0.81250000  0.56250000  0.25000000  1.0
  Be  Be2106  1  0.81250000  0.56250000  0.50000000  1.0
  Be  Be2107  1  0.81250000  0.56250000  0.75000000  1.0
  Be  Be2108  1  0.81250000  0.81250000  1.00000000  1.0
  Be  Be2109  1  0.81250000  0.81250000  0.25000000  1.0
  Be  Be2110  1  0.81250000  0.81250000  0.50000000  1.0
  Be  Be2111  1  0.81250000  0.81250000  0.75000000  1.0
  Be  Be2112  1  0.18750000  0.18750000  0.00000000  1.0
  Be  Be2113  1  0.18750000  0.18750000  0.25000000  1.0
  Be  Be2114  1  0.18750000  0.18750000  0.50000000  1.0
  Be  Be2115  1  0.18750000  0.18750000  0.75000000  1.0
  Be  Be2116  1  0.18750000  0.43750000  0.00000000  1.0
  Be  Be2117  1  0.18750000  0.43750000  0.25000000  1.0
  Be  Be2118  1  0.18750000  0.43750000  0.50000000  1.0
  Be  Be2119  1  0.18750000  0.43750000  0.75000000  1.0
  Be  Be2120  1  0.18750000  0.68750000  0.00000000  1.0
  Be  Be2121  1  0.18750000  0.68750000  0.25000000  1.0
  Be  Be2122  1  0.18750000  0.68750000  0.50000000  1.0
  Be  Be2123  1  0.18750000  0.68750000  0.75000000  1.0
  Be  Be2124  1  0.18750000  0.93750000  0.00000000  1.0
  Be  Be2125  1  0.18750000  0.93750000  0.25000000  1.0
  Be  Be2126  1  0.18750000  0.93750000  0.50000000  1.0
  Be  Be2127  1  0.18750000  0.93750000  0.75000000  1.0
  Be  Be2128  1  0.43750000  0.18750000  0.00000000  1.0
  Be  Be2129  1  0.43750000  0.18750000  0.25000000  1.0
  Be  Be2130  1  0.43750000  0.18750000  0.50000000  1.0
  Be  Be2131  1  0.43750000  0.18750000  0.75000000  1.0
  Be  Be2132  1  0.43750000  0.43750000  0.00000000  1.0
  Be  Be2133  1  0.43750000  0.43750000  0.25000000  1.0
  Be  Be2134  1  0.43750000  0.43750000  0.50000000  1.0
  Be  Be2135  1  0.43750000  0.43750000  0.75000000  1.0
  Be  Be2136  1  0.43750000  0.68750000  0.00000000  1.0
  Be  Be2137  1  0.43750000  0.68750000  0.25000000  1.0
  Be  Be2138  1  0.43750000  0.68750000  0.50000000  1.0
  Be  Be2139  1  0.43750000  0.68750000  0.75000000  1.0
  Be  Be2140  1  0.43750000  0.93750000  0.00000000  1.0
  Be  Be2141  1  0.43750000  0.93750000  0.25000000  1.0
  Be  Be2142  1  0.43750000  0.93750000  0.50000000  1.0
  Be  Be2143  1  0.43750000  0.93750000  0.75000000  1.0
  Be  Be2144  1  0.68750000  0.18750000  0.00000000  1.0
  Be  Be2145  1  0.68750000  0.18750000  0.25000000  1.0
  Be  Be2146  1  0.68750000  0.18750000  0.50000000  1.0
  Be  Be2147  1  0.68750000  0.18750000  0.75000000  1.0
  Be  Be2148  1  0.68750000  0.43750000  0.00000000  1.0
  Be  Be2149  1  0.68750000  0.43750000  0.25000000  1.0
  Be  Be2150  1  0.68750000  0.43750000  0.50000000  1.0
  Be  Be2151  1  0.68750000  0.43750000  0.75000000  1.0
  Be  Be2152  1  0.68750000  0.68750000  0.00000000  1.0
  Be  Be2153  1  0.68750000  0.68750000  0.25000000  1.0
  Be  Be2154  1  0.68750000  0.68750000  0.50000000  1.0
  Be  Be2155  1  0.68750000  0.68750000  0.75000000  1.0
  Be  Be2156  1  0.68750000  0.93750000  0.00000000  1.0
  Be  Be2157  1  0.68750000  0.93750000  0.25000000  1.0
  Be  Be2158  1  0.68750000  0.93750000  0.50000000  1.0
  Be  Be2159  1  0.68750000  0.93750000  0.75000000  1.0
  Be  Be2160  1  0.93750000  0.18750000  0.00000000  1.0
  Be  Be2161  1  0.93750000  0.18750000  0.25000000  1.0
  Be  Be2162  1  0.93750000  0.18750000  0.50000000  1.0
  Be  Be2163  1  0.93750000  0.18750000  0.75000000  1.0
  Be  Be2164  1  0.93750000  0.43750000  0.00000000  1.0
  Be  Be2165  1  0.93750000  0.43750000  0.25000000  1.0
  Be  Be2166  1  0.93750000  0.43750000  0.50000000  1.0
  Be  Be2167  1  0.93750000  0.43750000  0.75000000  1.0
  Be  Be2168  1  0.93750000  0.68750000  0.00000000  1.0
  Be  Be2169  1  0.93750000  0.68750000  0.25000000  1.0
  Be  Be2170  1  0.93750000  0.68750000  0.50000000  1.0
  Be  Be2171  1  0.93750000  0.68750000  0.75000000  1.0
  Be  Be2172  1  0.93750000  0.93750000  0.00000000  1.0
  Be  Be2173  1  0.93750000  0.93750000  0.25000000  1.0
  Be  Be2174  1  0.93750000  0.93750000  0.50000000  1.0
  Be  Be2175  1  0.93750000  0.93750000  0.75000000  1.0
  Be  Be2176  1  0.18750000  0.06250000  0.12500000  1.0
  Be  Be2177  1  0.18750000  0.06250000  0.37500000  1.0
  Be  Be2178  1  0.18750000  0.06250000  0.62500000  1.0
  Be  Be2179  1  0.18750000  0.06250000  0.87500000  1.0
  Be  Be2180  1  0.18750000  0.31250000  0.12500000  1.0
  Be  Be2181  1  0.18750000  0.31250000  0.37500000  1.0
  Be  Be2182  1  0.18750000  0.31250000  0.62500000  1.0
  Be  Be2183  1  0.18750000  0.31250000  0.87500000  1.0
  Be  Be2184  1  0.18750000  0.56250000  0.12500000  1.0
  Be  Be2185  1  0.18750000  0.56250000  0.37500000  1.0
  Be  Be2186  1  0.18750000  0.56250000  0.62500000  1.0
  Be  Be2187  1  0.18750000  0.56250000  0.87500000  1.0
  Be  Be2188  1  0.18750000  0.81250000  0.12500000  1.0
  Be  Be2189  1  0.18750000  0.81250000  0.37500000  1.0
  Be  Be2190  1  0.18750000  0.81250000  0.62500000  1.0
  Be  Be2191  1  0.18750000  0.81250000  0.87500000  1.0
  Be  Be2192  1  0.43750000  0.06250000  0.12500000  1.0
  Be  Be2193  1  0.43750000  0.06250000  0.37500000  1.0
  Be  Be2194  1  0.43750000  0.06250000  0.62500000  1.0
  Be  Be2195  1  0.43750000  0.06250000  0.87500000  1.0
  Be  Be2196  1  0.43750000  0.31250000  0.12500000  1.0
  Be  Be2197  1  0.43750000  0.31250000  0.37500000  1.0
  Be  Be2198  1  0.43750000  0.31250000  0.62500000  1.0
  Be  Be2199  1  0.43750000  0.31250000  0.87500000  1.0
  Be  Be2200  1  0.43750000  0.56250000  0.12500000  1.0
  Be  Be2201  1  0.43750000  0.56250000  0.37500000  1.0
  Be  Be2202  1  0.43750000  0.56250000  0.62500000  1.0
  Be  Be2203  1  0.43750000  0.56250000  0.87500000  1.0
  Be  Be2204  1  0.43750000  0.81250000  0.12500000  1.0
  Be  Be2205  1  0.43750000  0.81250000  0.37500000  1.0
  Be  Be2206  1  0.43750000  0.81250000  0.62500000  1.0
  Be  Be2207  1  0.43750000  0.81250000  0.87500000  1.0
  Be  Be2208  1  0.68750000  0.06250000  0.12500000  1.0
  Be  Be2209  1  0.68750000  0.06250000  0.37500000  1.0
  Be  Be2210  1  0.68750000  0.06250000  0.62500000  1.0
  Be  Be2211  1  0.68750000  0.06250000  0.87500000  1.0
  Be  Be2212  1  0.68750000  0.31250000  0.12500000  1.0
  Be  Be2213  1  0.68750000  0.31250000  0.37500000  1.0
  Be  Be2214  1  0.68750000  0.31250000  0.62500000  1.0
  Be  Be2215  1  0.68750000  0.31250000  0.87500000  1.0
  Be  Be2216  1  0.68750000  0.56250000  0.12500000  1.0
  Be  Be2217  1  0.68750000  0.56250000  0.37500000  1.0
  Be  Be2218  1  0.68750000  0.56250000  0.62500000  1.0
  Be  Be2219  1  0.68750000  0.56250000  0.87500000  1.0
  Be  Be2220  1  0.68750000  0.81250000  0.12500000  1.0
  Be  Be2221  1  0.68750000  0.81250000  0.37500000  1.0
  Be  Be2222  1  0.68750000  0.81250000  0.62500000  1.0
  Be  Be2223  1  0.68750000  0.81250000  0.87500000  1.0
  Be  Be2224  1  0.93750000  0.06250000  0.12500000  1.0
  Be  Be2225  1  0.93750000  0.06250000  0.37500000  1.0
  Be  Be2226  1  0.93750000  0.06250000  0.62500000  1.0
  Be  Be2227  1  0.93750000  0.06250000  0.87500000  1.0
  Be  Be2228  1  0.93750000  0.31250000  0.12500000  1.0
  Be  Be2229  1  0.93750000  0.31250000  0.37500000  1.0
  Be  Be2230  1  0.93750000  0.31250000  0.62500000  1.0
  Be  Be2231  1  0.93750000  0.31250000  0.87500000  1.0
  Be  Be2232  1  0.93750000  0.56250000  0.12500000  1.0
  Be  Be2233  1  0.93750000  0.56250000  0.37500000  1.0
  Be  Be2234  1  0.93750000  0.56250000  0.62500000  1.0
  Be  Be2235  1  0.93750000  0.56250000  0.87500000  1.0
  Be  Be2236  1  0.93750000  0.81250000  0.12500000  1.0
  Be  Be2237  1  0.93750000  0.81250000  0.37500000  1.0
  Be  Be2238  1  0.93750000  0.81250000  0.62500000  1.0
  Be  Be2239  1  0.93750000  0.81250000  0.87500000  1.0
  Be  Be2240  1  0.06250000  0.18750000  0.12500000  1.0
  Be  Be2241  1  0.06250000  0.18750000  0.37500000  1.0
  Be  Be2242  1  0.06250000  0.18750000  0.62500000  1.0
  Be  Be2243  1  0.06250000  0.18750000  0.87500000  1.0
  Be  Be2244  1  0.06250000  0.43750000  0.12500000  1.0
  Be  Be2245  1  0.06250000  0.43750000  0.37500000  1.0
  Be  Be2246  1  0.06250000  0.43750000  0.62500000  1.0
  Be  Be2247  1  0.06250000  0.43750000  0.87500000  1.0
  Be  Be2248  1  0.06250000  0.68750000  0.12500000  1.0
  Be  Be2249  1  0.06250000  0.68750000  0.37500000  1.0
  Be  Be2250  1  0.06250000  0.68750000  0.62500000  1.0
  Be  Be2251  1  0.06250000  0.68750000  0.87500000  1.0
  Be  Be2252  1  0.06250000  0.93750000  0.12500000  1.0
  Be  Be2253  1  0.06250000  0.93750000  0.37500000  1.0
  Be  Be2254  1  0.06250000  0.93750000  0.62500000  1.0
  Be  Be2255  1  0.06250000  0.93750000  0.87500000  1.0
  Be  Be2256  1  0.31250000  0.18750000  0.12500000  1.0
  Be  Be2257  1  0.31250000  0.18750000  0.37500000  1.0
  Be  Be2258  1  0.31250000  0.18750000  0.62500000  1.0
  Be  Be2259  1  0.31250000  0.18750000  0.87500000  1.0
  Be  Be2260  1  0.31250000  0.43750000  0.12500000  1.0
  Be  Be2261  1  0.31250000  0.43750000  0.37500000  1.0
  Be  Be2262  1  0.31250000  0.43750000  0.62500000  1.0
  Be  Be2263  1  0.31250000  0.43750000  0.87500000  1.0
  Be  Be2264  1  0.31250000  0.68750000  0.12500000  1.0
  Be  Be2265  1  0.31250000  0.68750000  0.37500000  1.0
  Be  Be2266  1  0.31250000  0.68750000  0.62500000  1.0
  Be  Be2267  1  0.31250000  0.68750000  0.87500000  1.0
  Be  Be2268  1  0.31250000  0.93750000  0.12500000  1.0
  Be  Be2269  1  0.31250000  0.93750000  0.37500000  1.0
  Be  Be2270  1  0.31250000  0.93750000  0.62500000  1.0
  Be  Be2271  1  0.31250000  0.93750000  0.87500000  1.0
  Be  Be2272  1  0.56250000  0.18750000  0.12500000  1.0
  Be  Be2273  1  0.56250000  0.18750000  0.37500000  1.0
  Be  Be2274  1  0.56250000  0.18750000  0.62500000  1.0
  Be  Be2275  1  0.56250000  0.18750000  0.87500000  1.0
  Be  Be2276  1  0.56250000  0.43750000  0.12500000  1.0
  Be  Be2277  1  0.56250000  0.43750000  0.37500000  1.0
  Be  Be2278  1  0.56250000  0.43750000  0.62500000  1.0
  Be  Be2279  1  0.56250000  0.43750000  0.87500000  1.0
  Be  Be2280  1  0.56250000  0.68750000  0.12500000  1.0
  Be  Be2281  1  0.56250000  0.68750000  0.37500000  1.0
  Be  Be2282  1  0.56250000  0.68750000  0.62500000  1.0
  Be  Be2283  1  0.56250000  0.68750000  0.87500000  1.0
  Be  Be2284  1  0.56250000  0.93750000  0.12500000  1.0
  Be  Be2285  1  0.56250000  0.93750000  0.37500000  1.0
  Be  Be2286  1  0.56250000  0.93750000  0.62500000  1.0
  Be  Be2287  1  0.56250000  0.93750000  0.87500000  1.0
  Be  Be2288  1  0.81250000  0.18750000  0.12500000  1.0
  Be  Be2289  1  0.81250000  0.18750000  0.37500000  1.0
  Be  Be2290  1  0.81250000  0.18750000  0.62500000  1.0
  Be  Be2291  1  0.81250000  0.18750000  0.87500000  1.0
  Be  Be2292  1  0.81250000  0.43750000  0.12500000  1.0
  Be  Be2293  1  0.81250000  0.43750000  0.37500000  1.0
  Be  Be2294  1  0.81250000  0.43750000  0.62500000  1.0
  Be  Be2295  1  0.81250000  0.43750000  0.87500000  1.0
  Be  Be2296  1  0.81250000  0.68750000  0.12500000  1.0
  Be  Be2297  1  0.81250000  0.68750000  0.37500000  1.0
  Be  Be2298  1  0.81250000  0.68750000  0.62500000  1.0
  Be  Be2299  1  0.81250000  0.68750000  0.87500000  1.0
  Be  Be2300  1  0.81250000  0.93750000  0.12500000  1.0
  Be  Be2301  1  0.81250000  0.93750000  0.37500000  1.0
  Be  Be2302  1  0.81250000  0.93750000  0.62500000  1.0
  Be  Be2303  1  0.81250000  0.93750000  0.87500000  1.0
  Be  Be2304  1  0.06250000  0.00000000  0.06250000  1.0
  Be  Be2305  1  0.06250000  0.00000000  0.31250000  1.0
  Be  Be2306  1  0.06250000  0.00000000  0.56250000  1.0
  Be  Be2307  1  0.06250000  0.00000000  0.81250000  1.0
  Be  Be2308  1  0.06250000  0.25000000  0.06250000  1.0
  Be  Be2309  1  0.06250000  0.25000000  0.31250000  1.0
  Be  Be2310  1  0.06250000  0.25000000  0.56250000  1.0
  Be  Be2311  1  0.06250000  0.25000000  0.81250000  1.0
  Be  Be2312  1  0.06250000  0.50000000  0.06250000  1.0
  Be  Be2313  1  0.06250000  0.50000000  0.31250000  1.0
  Be  Be2314  1  0.06250000  0.50000000  0.56250000  1.0
  Be  Be2315  1  0.06250000  0.50000000  0.81250000  1.0
  Be  Be2316  1  0.06250000  0.75000000  0.06250000  1.0
  Be  Be2317  1  0.06250000  0.75000000  0.31250000  1.0
  Be  Be2318  1  0.06250000  0.75000000  0.56250000  1.0
  Be  Be2319  1  0.06250000  0.75000000  0.81250000  1.0
  Be  Be2320  1  0.31250000  0.00000000  0.06250000  1.0
  Be  Be2321  1  0.31250000  0.00000000  0.31250000  1.0
  Be  Be2322  1  0.31250000  0.00000000  0.56250000  1.0
  Be  Be2323  1  0.31250000  0.00000000  0.81250000  1.0
  Be  Be2324  1  0.31250000  0.25000000  0.06250000  1.0
  Be  Be2325  1  0.31250000  0.25000000  0.31250000  1.0
  Be  Be2326  1  0.31250000  0.25000000  0.56250000  1.0
  Be  Be2327  1  0.31250000  0.25000000  0.81250000  1.0
  Be  Be2328  1  0.31250000  0.50000000  0.06250000  1.0
  Be  Be2329  1  0.31250000  0.50000000  0.31250000  1.0
  Be  Be2330  1  0.31250000  0.50000000  0.56250000  1.0
  Be  Be2331  1  0.31250000  0.50000000  0.81250000  1.0
  Be  Be2332  1  0.31250000  0.75000000  0.06250000  1.0
  Be  Be2333  1  0.31250000  0.75000000  0.31250000  1.0
  Be  Be2334  1  0.31250000  0.75000000  0.56250000  1.0
  Be  Be2335  1  0.31250000  0.75000000  0.81250000  1.0
  Be  Be2336  1  0.56250000  0.00000000  0.06250000  1.0
  Be  Be2337  1  0.56250000  0.00000000  0.31250000  1.0
  Be  Be2338  1  0.56250000  0.00000000  0.56250000  1.0
  Be  Be2339  1  0.56250000  0.00000000  0.81250000  1.0
  Be  Be2340  1  0.56250000  0.25000000  0.06250000  1.0
  Be  Be2341  1  0.56250000  0.25000000  0.31250000  1.0
  Be  Be2342  1  0.56250000  0.25000000  0.56250000  1.0
  Be  Be2343  1  0.56250000  0.25000000  0.81250000  1.0
  Be  Be2344  1  0.56250000  0.50000000  0.06250000  1.0
  Be  Be2345  1  0.56250000  0.50000000  0.31250000  1.0
  Be  Be2346  1  0.56250000  0.50000000  0.56250000  1.0
  Be  Be2347  1  0.56250000  0.50000000  0.81250000  1.0
  Be  Be2348  1  0.56250000  0.75000000  0.06250000  1.0
  Be  Be2349  1  0.56250000  0.75000000  0.31250000  1.0
  Be  Be2350  1  0.56250000  0.75000000  0.56250000  1.0
  Be  Be2351  1  0.56250000  0.75000000  0.81250000  1.0
  Be  Be2352  1  0.81250000  0.00000000  0.06250000  1.0
  Be  Be2353  1  0.81250000  0.00000000  0.31250000  1.0
  Be  Be2354  1  0.81250000  0.00000000  0.56250000  1.0
  Be  Be2355  1  0.81250000  0.00000000  0.81250000  1.0
  Be  Be2356  1  0.81250000  0.25000000  0.06250000  1.0
  Be  Be2357  1  0.81250000  0.25000000  0.31250000  1.0
  Be  Be2358  1  0.81250000  0.25000000  0.56250000  1.0
  Be  Be2359  1  0.81250000  0.25000000  0.81250000  1.0
  Be  Be2360  1  0.81250000  0.50000000  0.06250000  1.0
  Be  Be2361  1  0.81250000  0.50000000  0.31250000  1.0
  Be  Be2362  1  0.81250000  0.50000000  0.56250000  1.0
  Be  Be2363  1  0.81250000  0.50000000  0.81250000  1.0
  Be  Be2364  1  0.81250000  0.75000000  0.06250000  1.0
  Be  Be2365  1  0.81250000  0.75000000  0.31250000  1.0
  Be  Be2366  1  0.81250000  0.75000000  0.56250000  1.0
  Be  Be2367  1  0.81250000  0.75000000  0.81250000  1.0
  Be  Be2368  1  0.18750000  0.12500000  0.06250000  1.0
  Be  Be2369  1  0.18750000  0.12500000  0.31250000  1.0
  Be  Be2370  1  0.18750000  0.12500000  0.56250000  1.0
  Be  Be2371  1  0.18750000  0.12500000  0.81250000  1.0
  Be  Be2372  1  0.18750000  0.37500000  0.06250000  1.0
  Be  Be2373  1  0.18750000  0.37500000  0.31250000  1.0
  Be  Be2374  1  0.18750000  0.37500000  0.56250000  1.0
  Be  Be2375  1  0.18750000  0.37500000  0.81250000  1.0
  Be  Be2376  1  0.18750000  0.62500000  0.06250000  1.0
  Be  Be2377  1  0.18750000  0.62500000  0.31250000  1.0
  Be  Be2378  1  0.18750000  0.62500000  0.56250000  1.0
  Be  Be2379  1  0.18750000  0.62500000  0.81250000  1.0
  Be  Be2380  1  0.18750000  0.87500000  0.06250000  1.0
  Be  Be2381  1  0.18750000  0.87500000  0.31250000  1.0
  Be  Be2382  1  0.18750000  0.87500000  0.56250000  1.0
  Be  Be2383  1  0.18750000  0.87500000  0.81250000  1.0
  Be  Be2384  1  0.43750000  0.12500000  0.06250000  1.0
  Be  Be2385  1  0.43750000  0.12500000  0.31250000  1.0
  Be  Be2386  1  0.43750000  0.12500000  0.56250000  1.0
  Be  Be2387  1  0.43750000  0.12500000  0.81250000  1.0
  Be  Be2388  1  0.43750000  0.37500000  0.06250000  1.0
  Be  Be2389  1  0.43750000  0.37500000  0.31250000  1.0
  Be  Be2390  1  0.43750000  0.37500000  0.56250000  1.0
  Be  Be2391  1  0.43750000  0.37500000  0.81250000  1.0
  Be  Be2392  1  0.43750000  0.62500000  0.06250000  1.0
  Be  Be2393  1  0.43750000  0.62500000  0.31250000  1.0
  Be  Be2394  1  0.43750000  0.62500000  0.56250000  1.0
  Be  Be2395  1  0.43750000  0.62500000  0.81250000  1.0
  Be  Be2396  1  0.43750000  0.87500000  0.06250000  1.0
  Be  Be2397  1  0.43750000  0.87500000  0.31250000  1.0
  Be  Be2398  1  0.43750000  0.87500000  0.56250000  1.0
  Be  Be2399  1  0.43750000  0.87500000  0.81250000  1.0
  Be  Be2400  1  0.68750000  0.12500000  0.06250000  1.0
  Be  Be2401  1  0.68750000  0.12500000  0.31250000  1.0
  Be  Be2402  1  0.68750000  0.12500000  0.56250000  1.0
  Be  Be2403  1  0.68750000  0.12500000  0.81250000  1.0
  Be  Be2404  1  0.68750000  0.37500000  0.06250000  1.0
  Be  Be2405  1  0.68750000  0.37500000  0.31250000  1.0
  Be  Be2406  1  0.68750000  0.37500000  0.56250000  1.0
  Be  Be2407  1  0.68750000  0.37500000  0.81250000  1.0
  Be  Be2408  1  0.68750000  0.62500000  0.06250000  1.0
  Be  Be2409  1  0.68750000  0.62500000  0.31250000  1.0
  Be  Be2410  1  0.68750000  0.62500000  0.56250000  1.0
  Be  Be2411  1  0.68750000  0.62500000  0.81250000  1.0
  Be  Be2412  1  0.68750000  0.87500000  0.06250000  1.0
  Be  Be2413  1  0.68750000  0.87500000  0.31250000  1.0
  Be  Be2414  1  0.68750000  0.87500000  0.56250000  1.0
  Be  Be2415  1  0.68750000  0.87500000  0.81250000  1.0
  Be  Be2416  1  0.93750000  0.12500000  0.06250000  1.0
  Be  Be2417  1  0.93750000  0.12500000  0.31250000  1.0
  Be  Be2418  1  0.93750000  0.12500000  0.56250000  1.0
  Be  Be2419  1  0.93750000  0.12500000  0.81250000  1.0
  Be  Be2420  1  0.93750000  0.37500000  0.06250000  1.0
  Be  Be2421  1  0.93750000  0.37500000  0.31250000  1.0
  Be  Be2422  1  0.93750000  0.37500000  0.56250000  1.0
  Be  Be2423  1  0.93750000  0.37500000  0.81250000  1.0
  Be  Be2424  1  0.93750000  0.62500000  0.06250000  1.0
  Be  Be2425  1  0.93750000  0.62500000  0.31250000  1.0
  Be  Be2426  1  0.93750000  0.62500000  0.56250000  1.0
  Be  Be2427  1  0.93750000  0.62500000  0.81250000  1.0
  Be  Be2428  1  0.93750000  0.87500000  0.06250000  1.0
  Be  Be2429  1  0.93750000  0.87500000  0.31250000  1.0
  Be  Be2430  1  0.93750000  0.87500000  0.56250000  1.0
  Be  Be2431  1  0.93750000  0.87500000  0.81250000  1.0
  Be  Be2432  1  0.18750000  0.00000000  0.18750000  1.0
  Be  Be2433  1  0.18750000  0.00000000  0.43750000  1.0
  Be  Be2434  1  0.18750000  0.00000000  0.68750000  1.0
  Be  Be2435  1  0.18750000  0.00000000  0.93750000  1.0
  Be  Be2436  1  0.18750000  0.25000000  0.18750000  1.0
  Be  Be2437  1  0.18750000  0.25000000  0.43750000  1.0
  Be  Be2438  1  0.18750000  0.25000000  0.68750000  1.0
  Be  Be2439  1  0.18750000  0.25000000  0.93750000  1.0
  Be  Be2440  1  0.18750000  0.50000000  0.18750000  1.0
  Be  Be2441  1  0.18750000  0.50000000  0.43750000  1.0
  Be  Be2442  1  0.18750000  0.50000000  0.68750000  1.0
  Be  Be2443  1  0.18750000  0.50000000  0.93750000  1.0
  Be  Be2444  1  0.18750000  0.75000000  0.18750000  1.0
  Be  Be2445  1  0.18750000  0.75000000  0.43750000  1.0
  Be  Be2446  1  0.18750000  0.75000000  0.68750000  1.0
  Be  Be2447  1  0.18750000  0.75000000  0.93750000  1.0
  Be  Be2448  1  0.43750000  0.00000000  0.18750000  1.0
  Be  Be2449  1  0.43750000  0.00000000  0.43750000  1.0
  Be  Be2450  1  0.43750000  0.00000000  0.68750000  1.0
  Be  Be2451  1  0.43750000  0.00000000  0.93750000  1.0
  Be  Be2452  1  0.43750000  0.25000000  0.18750000  1.0
  Be  Be2453  1  0.43750000  0.25000000  0.43750000  1.0
  Be  Be2454  1  0.43750000  0.25000000  0.68750000  1.0
  Be  Be2455  1  0.43750000  0.25000000  0.93750000  1.0
  Be  Be2456  1  0.43750000  0.50000000  0.18750000  1.0
  Be  Be2457  1  0.43750000  0.50000000  0.43750000  1.0
  Be  Be2458  1  0.43750000  0.50000000  0.68750000  1.0
  Be  Be2459  1  0.43750000  0.50000000  0.93750000  1.0
  Be  Be2460  1  0.43750000  0.75000000  0.18750000  1.0
  Be  Be2461  1  0.43750000  0.75000000  0.43750000  1.0
  Be  Be2462  1  0.43750000  0.75000000  0.68750000  1.0
  Be  Be2463  1  0.43750000  0.75000000  0.93750000  1.0
  Be  Be2464  1  0.68750000  0.00000000  0.18750000  1.0
  Be  Be2465  1  0.68750000  0.00000000  0.43750000  1.0
  Be  Be2466  1  0.68750000  0.00000000  0.68750000  1.0
  Be  Be2467  1  0.68750000  0.00000000  0.93750000  1.0
  Be  Be2468  1  0.68750000  0.25000000  0.18750000  1.0
  Be  Be2469  1  0.68750000  0.25000000  0.43750000  1.0
  Be  Be2470  1  0.68750000  0.25000000  0.68750000  1.0
  Be  Be2471  1  0.68750000  0.25000000  0.93750000  1.0
  Be  Be2472  1  0.68750000  0.50000000  0.18750000  1.0
  Be  Be2473  1  0.68750000  0.50000000  0.43750000  1.0
  Be  Be2474  1  0.68750000  0.50000000  0.68750000  1.0
  Be  Be2475  1  0.68750000  0.50000000  0.93750000  1.0
  Be  Be2476  1  0.68750000  0.75000000  0.18750000  1.0
  Be  Be2477  1  0.68750000  0.75000000  0.43750000  1.0
  Be  Be2478  1  0.68750000  0.75000000  0.68750000  1.0
  Be  Be2479  1  0.68750000  0.75000000  0.93750000  1.0
  Be  Be2480  1  0.93750000  0.00000000  0.18750000  1.0
  Be  Be2481  1  0.93750000  0.00000000  0.43750000  1.0
  Be  Be2482  1  0.93750000  0.00000000  0.68750000  1.0
  Be  Be2483  1  0.93750000  0.00000000  0.93750000  1.0
  Be  Be2484  1  0.93750000  0.25000000  0.18750000  1.0
  Be  Be2485  1  0.93750000  0.25000000  0.43750000  1.0
  Be  Be2486  1  0.93750000  0.25000000  0.68750000  1.0
  Be  Be2487  1  0.93750000  0.25000000  0.93750000  1.0
  Be  Be2488  1  0.93750000  0.50000000  0.18750000  1.0
  Be  Be2489  1  0.93750000  0.50000000  0.43750000  1.0
  Be  Be2490  1  0.93750000  0.50000000  0.68750000  1.0
  Be  Be2491  1  0.93750000  0.50000000  0.93750000  1.0
  Be  Be2492  1  0.93750000  0.75000000  0.18750000  1.0
  Be  Be2493  1  0.93750000  0.75000000  0.43750000  1.0
  Be  Be2494  1  0.93750000  0.75000000  0.68750000  1.0
  Be  Be2495  1  0.93750000  0.75000000  0.93750000  1.0
  Be  Be2496  1  0.06250000  0.12500000  0.18750000  1.0
  Be  Be2497  1  0.06250000  0.12500000  0.43750000  1.0
  Be  Be2498  1  0.06250000  0.12500000  0.68750000  1.0
  Be  Be2499  1  0.06250000  0.12500000  0.93750000  1.0
  Be  Be2500  1  0.06250000  0.37500000  0.18750000  1.0
  Be  Be2501  1  0.06250000  0.37500000  0.43750000  1.0
  Be  Be2502  1  0.06250000  0.37500000  0.68750000  1.0
  Be  Be2503  1  0.06250000  0.37500000  0.93750000  1.0
  Be  Be2504  1  0.06250000  0.62500000  0.18750000  1.0
  Be  Be2505  1  0.06250000  0.62500000  0.43750000  1.0
  Be  Be2506  1  0.06250000  0.62500000  0.68750000  1.0
  Be  Be2507  1  0.06250000  0.62500000  0.93750000  1.0
  Be  Be2508  1  0.06250000  0.87500000  0.18750000  1.0
  Be  Be2509  1  0.06250000  0.87500000  0.43750000  1.0
  Be  Be2510  1  0.06250000  0.87500000  0.68750000  1.0
  Be  Be2511  1  0.06250000  0.87500000  0.93750000  1.0
  Be  Be2512  1  0.31250000  0.12500000  0.18750000  1.0
  Be  Be2513  1  0.31250000  0.12500000  0.43750000  1.0
  Be  Be2514  1  0.31250000  0.12500000  0.68750000  1.0
  Be  Be2515  1  0.31250000  0.12500000  0.93750000  1.0
  Be  Be2516  1  0.31250000  0.37500000  0.18750000  1.0
  Be  Be2517  1  0.31250000  0.37500000  0.43750000  1.0
  Be  Be2518  1  0.31250000  0.37500000  0.68750000  1.0
  Be  Be2519  1  0.31250000  0.37500000  0.93750000  1.0
  Be  Be2520  1  0.31250000  0.62500000  0.18750000  1.0
  Be  Be2521  1  0.31250000  0.62500000  0.43750000  1.0
  Be  Be2522  1  0.31250000  0.62500000  0.68750000  1.0
  Be  Be2523  1  0.31250000  0.62500000  0.93750000  1.0
  Be  Be2524  1  0.31250000  0.87500000  0.18750000  1.0
  Be  Be2525  1  0.31250000  0.87500000  0.43750000  1.0
  Be  Be2526  1  0.31250000  0.87500000  0.68750000  1.0
  Be  Be2527  1  0.31250000  0.87500000  0.93750000  1.0
  Be  Be2528  1  0.56250000  0.12500000  0.18750000  1.0
  Be  Be2529  1  0.56250000  0.12500000  0.43750000  1.0
  Be  Be2530  1  0.56250000  0.12500000  0.68750000  1.0
  Be  Be2531  1  0.56250000  0.12500000  0.93750000  1.0
  Be  Be2532  1  0.56250000  0.37500000  0.18750000  1.0
  Be  Be2533  1  0.56250000  0.37500000  0.43750000  1.0
  Be  Be2534  1  0.56250000  0.37500000  0.68750000  1.0
  Be  Be2535  1  0.56250000  0.37500000  0.93750000  1.0
  Be  Be2536  1  0.56250000  0.62500000  0.18750000  1.0
  Be  Be2537  1  0.56250000  0.62500000  0.43750000  1.0
  Be  Be2538  1  0.56250000  0.62500000  0.68750000  1.0
  Be  Be2539  1  0.56250000  0.62500000  0.93750000  1.0
  Be  Be2540  1  0.56250000  0.87500000  0.18750000  1.0
  Be  Be2541  1  0.56250000  0.87500000  0.43750000  1.0
  Be  Be2542  1  0.56250000  0.87500000  0.68750000  1.0
  Be  Be2543  1  0.56250000  0.87500000  0.93750000  1.0
  Be  Be2544  1  0.81250000  0.12500000  0.18750000  1.0
  Be  Be2545  1  0.81250000  0.12500000  0.43750000  1.0
  Be  Be2546  1  0.81250000  0.12500000  0.68750000  1.0
  Be  Be2547  1  0.81250000  0.12500000  0.93750000  1.0
  Be  Be2548  1  0.81250000  0.37500000  0.18750000  1.0
  Be  Be2549  1  0.81250000  0.37500000  0.43750000  1.0
  Be  Be2550  1  0.81250000  0.37500000  0.68750000  1.0
  Be  Be2551  1  0.81250000  0.37500000  0.93750000  1.0
  Be  Be2552  1  0.81250000  0.62500000  0.18750000  1.0
  Be  Be2553  1  0.81250000  0.62500000  0.43750000  1.0
  Be  Be2554  1  0.81250000  0.62500000  0.68750000  1.0
  Be  Be2555  1  0.81250000  0.62500000  0.93750000  1.0
  Be  Be2556  1  0.81250000  0.87500000  0.18750000  1.0
  Be  Be2557  1  0.81250000  0.87500000  0.43750000  1.0
  Be  Be2558  1  0.81250000  0.87500000  0.68750000  1.0
  Be  Be2559  1  0.81250000  0.87500000  0.93750000  1.0
  Be  Be2560  1  0.00000000  0.06250000  0.06250000  1.0
  Be  Be2561  1  0.00000000  0.06250000  0.31250000  1.0
  Be  Be2562  1  0.00000000  0.06250000  0.56250000  1.0
  Be  Be2563  1  0.00000000  0.06250000  0.81250000  1.0
  Be  Be2564  1  0.00000000  0.31250000  0.06250000  1.0
  Be  Be2565  1  0.00000000  0.31250000  0.31250000  1.0
  Be  Be2566  1  0.00000000  0.31250000  0.56250000  1.0
  Be  Be2567  1  0.00000000  0.31250000  0.81250000  1.0
  Be  Be2568  1  0.00000000  0.56250000  0.06250000  1.0
  Be  Be2569  1  0.00000000  0.56250000  0.31250000  1.0
  Be  Be2570  1  0.00000000  0.56250000  0.56250000  1.0
  Be  Be2571  1  0.00000000  0.56250000  0.81250000  1.0
  Be  Be2572  1  0.00000000  0.81250000  0.06250000  1.0
  Be  Be2573  1  0.00000000  0.81250000  0.31250000  1.0
  Be  Be2574  1  0.00000000  0.81250000  0.56250000  1.0
  Be  Be2575  1  0.00000000  0.81250000  0.81250000  1.0
  Be  Be2576  1  0.25000000  0.06250000  0.06250000  1.0
  Be  Be2577  1  0.25000000  0.06250000  0.31250000  1.0
  Be  Be2578  1  0.25000000  0.06250000  0.56250000  1.0
  Be  Be2579  1  0.25000000  0.06250000  0.81250000  1.0
  Be  Be2580  1  0.25000000  0.31250000  0.06250000  1.0
  Be  Be2581  1  0.25000000  0.31250000  0.31250000  1.0
  Be  Be2582  1  0.25000000  0.31250000  0.56250000  1.0
  Be  Be2583  1  0.25000000  0.31250000  0.81250000  1.0
  Be  Be2584  1  0.25000000  0.56250000  0.06250000  1.0
  Be  Be2585  1  0.25000000  0.56250000  0.31250000  1.0
  Be  Be2586  1  0.25000000  0.56250000  0.56250000  1.0
  Be  Be2587  1  0.25000000  0.56250000  0.81250000  1.0
  Be  Be2588  1  0.25000000  0.81250000  0.06250000  1.0
  Be  Be2589  1  0.25000000  0.81250000  0.31250000  1.0
  Be  Be2590  1  0.25000000  0.81250000  0.56250000  1.0
  Be  Be2591  1  0.25000000  0.81250000  0.81250000  1.0
  Be  Be2592  1  0.50000000  0.06250000  0.06250000  1.0
  Be  Be2593  1  0.50000000  0.06250000  0.31250000  1.0
  Be  Be2594  1  0.50000000  0.06250000  0.56250000  1.0
  Be  Be2595  1  0.50000000  0.06250000  0.81250000  1.0
  Be  Be2596  1  0.50000000  0.31250000  0.06250000  1.0
  Be  Be2597  1  0.50000000  0.31250000  0.31250000  1.0
  Be  Be2598  1  0.50000000  0.31250000  0.56250000  1.0
  Be  Be2599  1  0.50000000  0.31250000  0.81250000  1.0
  Be  Be2600  1  0.50000000  0.56250000  0.06250000  1.0
  Be  Be2601  1  0.50000000  0.56250000  0.31250000  1.0
  Be  Be2602  1  0.50000000  0.56250000  0.56250000  1.0
  Be  Be2603  1  0.50000000  0.56250000  0.81250000  1.0
  Be  Be2604  1  0.50000000  0.81250000  0.06250000  1.0
  Be  Be2605  1  0.50000000  0.81250000  0.31250000  1.0
  Be  Be2606  1  0.50000000  0.81250000  0.56250000  1.0
  Be  Be2607  1  0.50000000  0.81250000  0.81250000  1.0
  Be  Be2608  1  0.75000000  0.06250000  0.06250000  1.0
  Be  Be2609  1  0.75000000  0.06250000  0.31250000  1.0
  Be  Be2610  1  0.75000000  0.06250000  0.56250000  1.0
  Be  Be2611  1  0.75000000  0.06250000  0.81250000  1.0
  Be  Be2612  1  0.75000000  0.31250000  0.06250000  1.0
  Be  Be2613  1  0.75000000  0.31250000  0.31250000  1.0
  Be  Be2614  1  0.75000000  0.31250000  0.56250000  1.0
  Be  Be2615  1  0.75000000  0.31250000  0.81250000  1.0
  Be  Be2616  1  0.75000000  0.56250000  0.06250000  1.0
  Be  Be2617  1  0.75000000  0.56250000  0.31250000  1.0
  Be  Be2618  1  0.75000000  0.56250000  0.56250000  1.0
  Be  Be2619  1  0.75000000  0.56250000  0.81250000  1.0
  Be  Be2620  1  0.75000000  0.81250000  0.06250000  1.0
  Be  Be2621  1  0.75000000  0.81250000  0.31250000  1.0
  Be  Be2622  1  0.75000000  0.81250000  0.56250000  1.0
  Be  Be2623  1  0.75000000  0.81250000  0.81250000  1.0
  Be  Be2624  1  0.12500000  0.18750000  0.06250000  1.0
  Be  Be2625  1  0.12500000  0.18750000  0.31250000  1.0
  Be  Be2626  1  0.12500000  0.18750000  0.56250000  1.0
  Be  Be2627  1  0.12500000  0.18750000  0.81250000  1.0
  Be  Be2628  1  0.12500000  0.43750000  0.06250000  1.0
  Be  Be2629  1  0.12500000  0.43750000  0.31250000  1.0
  Be  Be2630  1  0.12500000  0.43750000  0.56250000  1.0
  Be  Be2631  1  0.12500000  0.43750000  0.81250000  1.0
  Be  Be2632  1  0.12500000  0.68750000  0.06250000  1.0
  Be  Be2633  1  0.12500000  0.68750000  0.31250000  1.0
  Be  Be2634  1  0.12500000  0.68750000  0.56250000  1.0
  Be  Be2635  1  0.12500000  0.68750000  0.81250000  1.0
  Be  Be2636  1  0.12500000  0.93750000  0.06250000  1.0
  Be  Be2637  1  0.12500000  0.93750000  0.31250000  1.0
  Be  Be2638  1  0.12500000  0.93750000  0.56250000  1.0
  Be  Be2639  1  0.12500000  0.93750000  0.81250000  1.0
  Be  Be2640  1  0.37500000  0.18750000  0.06250000  1.0
  Be  Be2641  1  0.37500000  0.18750000  0.31250000  1.0
  Be  Be2642  1  0.37500000  0.18750000  0.56250000  1.0
  Be  Be2643  1  0.37500000  0.18750000  0.81250000  1.0
  Be  Be2644  1  0.37500000  0.43750000  0.06250000  1.0
  Be  Be2645  1  0.37500000  0.43750000  0.31250000  1.0
  Be  Be2646  1  0.37500000  0.43750000  0.56250000  1.0
  Be  Be2647  1  0.37500000  0.43750000  0.81250000  1.0
  Be  Be2648  1  0.37500000  0.68750000  0.06250000  1.0
  Be  Be2649  1  0.37500000  0.68750000  0.31250000  1.0
  Be  Be2650  1  0.37500000  0.68750000  0.56250000  1.0
  Be  Be2651  1  0.37500000  0.68750000  0.81250000  1.0
  Be  Be2652  1  0.37500000  0.93750000  0.06250000  1.0
  Be  Be2653  1  0.37500000  0.93750000  0.31250000  1.0
  Be  Be2654  1  0.37500000  0.93750000  0.56250000  1.0
  Be  Be2655  1  0.37500000  0.93750000  0.81250000  1.0
  Be  Be2656  1  0.62500000  0.18750000  0.06250000  1.0
  Be  Be2657  1  0.62500000  0.18750000  0.31250000  1.0
  Be  Be2658  1  0.62500000  0.18750000  0.56250000  1.0
  Be  Be2659  1  0.62500000  0.18750000  0.81250000  1.0
  Be  Be2660  1  0.62500000  0.43750000  0.06250000  1.0
  Be  Be2661  1  0.62500000  0.43750000  0.31250000  1.0
  Be  Be2662  1  0.62500000  0.43750000  0.56250000  1.0
  Be  Be2663  1  0.62500000  0.43750000  0.81250000  1.0
  Be  Be2664  1  0.62500000  0.68750000  0.06250000  1.0
  Be  Be2665  1  0.62500000  0.68750000  0.31250000  1.0
  Be  Be2666  1  0.62500000  0.68750000  0.56250000  1.0
  Be  Be2667  1  0.62500000  0.68750000  0.81250000  1.0
  Be  Be2668  1  0.62500000  0.93750000  0.06250000  1.0
  Be  Be2669  1  0.62500000  0.93750000  0.31250000  1.0
  Be  Be2670  1  0.62500000  0.93750000  0.56250000  1.0
  Be  Be2671  1  0.62500000  0.93750000  0.81250000  1.0
  Be  Be2672  1  0.87500000  0.18750000  0.06250000  1.0
  Be  Be2673  1  0.87500000  0.18750000  0.31250000  1.0
  Be  Be2674  1  0.87500000  0.18750000  0.56250000  1.0
  Be  Be2675  1  0.87500000  0.18750000  0.81250000  1.0
  Be  Be2676  1  0.87500000  0.43750000  0.06250000  1.0
  Be  Be2677  1  0.87500000  0.43750000  0.31250000  1.0
  Be  Be2678  1  0.87500000  0.43750000  0.56250000  1.0
  Be  Be2679  1  0.87500000  0.43750000  0.81250000  1.0
  Be  Be2680  1  0.87500000  0.68750000  0.06250000  1.0
  Be  Be2681  1  0.87500000  0.68750000  0.31250000  1.0
  Be  Be2682  1  0.87500000  0.68750000  0.56250000  1.0
  Be  Be2683  1  0.87500000  0.68750000  0.81250000  1.0
  Be  Be2684  1  0.87500000  0.93750000  0.06250000  1.0
  Be  Be2685  1  0.87500000  0.93750000  0.31250000  1.0
  Be  Be2686  1  0.87500000  0.93750000  0.56250000  1.0
  Be  Be2687  1  0.87500000  0.93750000  0.81250000  1.0
  Be  Be2688  1  0.12500000  0.06250000  0.18750000  1.0
  Be  Be2689  1  0.12500000  0.06250000  0.43750000  1.0
  Be  Be2690  1  0.12500000  0.06250000  0.68750000  1.0
  Be  Be2691  1  0.12500000  0.06250000  0.93750000  1.0
  Be  Be2692  1  0.12500000  0.31250000  0.18750000  1.0
  Be  Be2693  1  0.12500000  0.31250000  0.43750000  1.0
  Be  Be2694  1  0.12500000  0.31250000  0.68750000  1.0
  Be  Be2695  1  0.12500000  0.31250000  0.93750000  1.0
  Be  Be2696  1  0.12500000  0.56250000  0.18750000  1.0
  Be  Be2697  1  0.12500000  0.56250000  0.43750000  1.0
  Be  Be2698  1  0.12500000  0.56250000  0.68750000  1.0
  Be  Be2699  1  0.12500000  0.56250000  0.93750000  1.0
  Be  Be2700  1  0.12500000  0.81250000  0.18750000  1.0
  Be  Be2701  1  0.12500000  0.81250000  0.43750000  1.0
  Be  Be2702  1  0.12500000  0.81250000  0.68750000  1.0
  Be  Be2703  1  0.12500000  0.81250000  0.93750000  1.0
  Be  Be2704  1  0.37500000  0.06250000  0.18750000  1.0
  Be  Be2705  1  0.37500000  0.06250000  0.43750000  1.0
  Be  Be2706  1  0.37500000  0.06250000  0.68750000  1.0
  Be  Be2707  1  0.37500000  0.06250000  0.93750000  1.0
  Be  Be2708  1  0.37500000  0.31250000  0.18750000  1.0
  Be  Be2709  1  0.37500000  0.31250000  0.43750000  1.0
  Be  Be2710  1  0.37500000  0.31250000  0.68750000  1.0
  Be  Be2711  1  0.37500000  0.31250000  0.93750000  1.0
  Be  Be2712  1  0.37500000  0.56250000  0.18750000  1.0
  Be  Be2713  1  0.37500000  0.56250000  0.43750000  1.0
  Be  Be2714  1  0.37500000  0.56250000  0.68750000  1.0
  Be  Be2715  1  0.37500000  0.56250000  0.93750000  1.0
  Be  Be2716  1  0.37500000  0.81250000  0.18750000  1.0
  Be  Be2717  1  0.37500000  0.81250000  0.43750000  1.0
  Be  Be2718  1  0.37500000  0.81250000  0.68750000  1.0
  Be  Be2719  1  0.37500000  0.81250000  0.93750000  1.0
  Be  Be2720  1  0.62500000  0.06250000  0.18750000  1.0
  Be  Be2721  1  0.62500000  0.06250000  0.43750000  1.0
  Be  Be2722  1  0.62500000  0.06250000  0.68750000  1.0
  Be  Be2723  1  0.62500000  0.06250000  0.93750000  1.0
  Be  Be2724  1  0.62500000  0.31250000  0.18750000  1.0
  Be  Be2725  1  0.62500000  0.31250000  0.43750000  1.0
  Be  Be2726  1  0.62500000  0.31250000  0.68750000  1.0
  Be  Be2727  1  0.62500000  0.31250000  0.93750000  1.0
  Be  Be2728  1  0.62500000  0.56250000  0.18750000  1.0
  Be  Be2729  1  0.62500000  0.56250000  0.43750000  1.0
  Be  Be2730  1  0.62500000  0.56250000  0.68750000  1.0
  Be  Be2731  1  0.62500000  0.56250000  0.93750000  1.0
  Be  Be2732  1  0.62500000  0.81250000  0.18750000  1.0
  Be  Be2733  1  0.62500000  0.81250000  0.43750000  1.0
  Be  Be2734  1  0.62500000  0.81250000  0.68750000  1.0
  Be  Be2735  1  0.62500000  0.81250000  0.93750000  1.0
  Be  Be2736  1  0.87500000  0.06250000  0.18750000  1.0
  Be  Be2737  1  0.87500000  0.06250000  0.43750000  1.0
  Be  Be2738  1  0.87500000  0.06250000  0.68750000  1.0
  Be  Be2739  1  0.87500000  0.06250000  0.93750000  1.0
  Be  Be2740  1  0.87500000  0.31250000  0.18750000  1.0
  Be  Be2741  1  0.87500000  0.31250000  0.43750000  1.0
  Be  Be2742  1  0.87500000  0.31250000  0.68750000  1.0
  Be  Be2743  1  0.87500000  0.31250000  0.93750000  1.0
  Be  Be2744  1  0.87500000  0.56250000  0.18750000  1.0
  Be  Be2745  1  0.87500000  0.56250000  0.43750000  1.0
  Be  Be2746  1  0.87500000  0.56250000  0.68750000  1.0
  Be  Be2747  1  0.87500000  0.56250000  0.93750000  1.0
  Be  Be2748  1  0.87500000  0.81250000  0.18750000  1.0
  Be  Be2749  1  0.87500000  0.81250000  0.43750000  1.0
  Be  Be2750  1  0.87500000  0.81250000  0.68750000  1.0
  Be  Be2751  1  0.87500000  0.81250000  0.93750000  1.0
  Be  Be2752  1  0.00000000  0.18750000  0.18750000  1.0
  Be  Be2753  1  0.00000000  0.18750000  0.43750000  1.0
  Be  Be2754  1  0.00000000  0.18750000  0.68750000  1.0
  Be  Be2755  1  0.00000000  0.18750000  0.93750000  1.0
  Be  Be2756  1  0.00000000  0.43750000  0.18750000  1.0
  Be  Be2757  1  0.00000000  0.43750000  0.43750000  1.0
  Be  Be2758  1  0.00000000  0.43750000  0.68750000  1.0
  Be  Be2759  1  0.00000000  0.43750000  0.93750000  1.0
  Be  Be2760  1  0.00000000  0.68750000  0.18750000  1.0
  Be  Be2761  1  0.00000000  0.68750000  0.43750000  1.0
  Be  Be2762  1  0.00000000  0.68750000  0.68750000  1.0
  Be  Be2763  1  0.00000000  0.68750000  0.93750000  1.0
  Be  Be2764  1  0.00000000  0.93750000  0.18750000  1.0
  Be  Be2765  1  0.00000000  0.93750000  0.43750000  1.0
  Be  Be2766  1  0.00000000  0.93750000  0.68750000  1.0
  Be  Be2767  1  0.00000000  0.93750000  0.93750000  1.0
  Be  Be2768  1  0.25000000  0.18750000  0.18750000  1.0
  Be  Be2769  1  0.25000000  0.18750000  0.43750000  1.0
  Be  Be2770  1  0.25000000  0.18750000  0.68750000  1.0
  Be  Be2771  1  0.25000000  0.18750000  0.93750000  1.0
  Be  Be2772  1  0.25000000  0.43750000  0.18750000  1.0
  Be  Be2773  1  0.25000000  0.43750000  0.43750000  1.0
  Be  Be2774  1  0.25000000  0.43750000  0.68750000  1.0
  Be  Be2775  1  0.25000000  0.43750000  0.93750000  1.0
  Be  Be2776  1  0.25000000  0.68750000  0.18750000  1.0
  Be  Be2777  1  0.25000000  0.68750000  0.43750000  1.0
  Be  Be2778  1  0.25000000  0.68750000  0.68750000  1.0
  Be  Be2779  1  0.25000000  0.68750000  0.93750000  1.0
  Be  Be2780  1  0.25000000  0.93750000  0.18750000  1.0
  Be  Be2781  1  0.25000000  0.93750000  0.43750000  1.0
  Be  Be2782  1  0.25000000  0.93750000  0.68750000  1.0
  Be  Be2783  1  0.25000000  0.93750000  0.93750000  1.0
  Be  Be2784  1  0.50000000  0.18750000  0.18750000  1.0
  Be  Be2785  1  0.50000000  0.18750000  0.43750000  1.0
  Be  Be2786  1  0.50000000  0.18750000  0.68750000  1.0
  Be  Be2787  1  0.50000000  0.18750000  0.93750000  1.0
  Be  Be2788  1  0.50000000  0.43750000  0.18750000  1.0
  Be  Be2789  1  0.50000000  0.43750000  0.43750000  1.0
  Be  Be2790  1  0.50000000  0.43750000  0.68750000  1.0
  Be  Be2791  1  0.50000000  0.43750000  0.93750000  1.0
  Be  Be2792  1  0.50000000  0.68750000  0.18750000  1.0
  Be  Be2793  1  0.50000000  0.68750000  0.43750000  1.0
  Be  Be2794  1  0.50000000  0.68750000  0.68750000  1.0
  Be  Be2795  1  0.50000000  0.68750000  0.93750000  1.0
  Be  Be2796  1  0.50000000  0.93750000  0.18750000  1.0
  Be  Be2797  1  0.50000000  0.93750000  0.43750000  1.0
  Be  Be2798  1  0.50000000  0.93750000  0.68750000  1.0
  Be  Be2799  1  0.50000000  0.93750000  0.93750000  1.0
  Be  Be2800  1  0.75000000  0.18750000  0.18750000  1.0
  Be  Be2801  1  0.75000000  0.18750000  0.43750000  1.0
  Be  Be2802  1  0.75000000  0.18750000  0.68750000  1.0
  Be  Be2803  1  0.75000000  0.18750000  0.93750000  1.0
  Be  Be2804  1  0.75000000  0.43750000  0.18750000  1.0
  Be  Be2805  1  0.75000000  0.43750000  0.43750000  1.0
  Be  Be2806  1  0.75000000  0.43750000  0.68750000  1.0
  Be  Be2807  1  0.75000000  0.43750000  0.93750000  1.0
  Be  Be2808  1  0.75000000  0.68750000  0.18750000  1.0
  Be  Be2809  1  0.75000000  0.68750000  0.43750000  1.0
  Be  Be2810  1  0.75000000  0.68750000  0.68750000  1.0
  Be  Be2811  1  0.75000000  0.68750000  0.93750000  1.0
  Be  Be2812  1  0.75000000  0.93750000  0.18750000  1.0
  Be  Be2813  1  0.75000000  0.93750000  0.43750000  1.0
  Be  Be2814  1  0.75000000  0.93750000  0.68750000  1.0
  Be  Be2815  1  0.75000000  0.93750000  0.93750000  1.0
  Be  Be2816  1  0.00000000  0.00000000  0.00000000  1.0
  Be  Be2817  1  0.00000000  0.00000000  0.25000000  1.0
  Be  Be2818  1  0.00000000  0.00000000  0.50000000  1.0
  Be  Be2819  1  0.00000000  0.00000000  0.75000000  1.0
  Be  Be2820  1  0.00000000  0.25000000  0.00000000  1.0
  Be  Be2821  1  0.00000000  0.25000000  0.25000000  1.0
  Be  Be2822  1  0.00000000  0.25000000  0.50000000  1.0
  Be  Be2823  1  0.00000000  0.25000000  0.75000000  1.0
  Be  Be2824  1  0.00000000  0.50000000  0.00000000  1.0
  Be  Be2825  1  0.00000000  0.50000000  0.25000000  1.0
  Be  Be2826  1  0.00000000  0.50000000  0.50000000  1.0
  Be  Be2827  1  0.00000000  0.50000000  0.75000000  1.0
  Be  Be2828  1  0.00000000  0.75000000  0.00000000  1.0
  Be  Be2829  1  0.00000000  0.75000000  0.25000000  1.0
  Be  Be2830  1  0.00000000  0.75000000  0.50000000  1.0
  Be  Be2831  1  0.00000000  0.75000000  0.75000000  1.0
  Be  Be2832  1  0.25000000  0.00000000  0.00000000  1.0
  Be  Be2833  1  0.25000000  0.00000000  0.25000000  1.0
  Be  Be2834  1  0.25000000  0.00000000  0.50000000  1.0
  Be  Be2835  1  0.25000000  0.00000000  0.75000000  1.0
  Be  Be2836  1  0.25000000  0.25000000  0.00000000  1.0
  Be  Be2837  1  0.25000000  0.25000000  0.25000000  1.0
  Be  Be2838  1  0.25000000  0.25000000  0.50000000  1.0
  Be  Be2839  1  0.25000000  0.25000000  0.75000000  1.0
  Be  Be2840  1  0.25000000  0.50000000  0.00000000  1.0
  Be  Be2841  1  0.25000000  0.50000000  0.25000000  1.0
  Be  Be2842  1  0.25000000  0.50000000  0.50000000  1.0
  Be  Be2843  1  0.25000000  0.50000000  0.75000000  1.0
  Be  Be2844  1  0.25000000  0.75000000  0.00000000  1.0
  Be  Be2845  1  0.25000000  0.75000000  0.25000000  1.0
  Be  Be2846  1  0.25000000  0.75000000  0.50000000  1.0
  Be  Be2847  1  0.25000000  0.75000000  0.75000000  1.0
  Be  Be2848  1  0.50000000  0.00000000  0.00000000  1.0
  Be  Be2849  1  0.50000000  0.00000000  0.25000000  1.0
  Be  Be2850  1  0.50000000  0.00000000  0.50000000  1.0
  Be  Be2851  1  0.50000000  0.00000000  0.75000000  1.0
  Be  Be2852  1  0.50000000  0.25000000  0.00000000  1.0
  Be  Be2853  1  0.50000000  0.25000000  0.25000000  1.0
  Be  Be2854  1  0.50000000  0.25000000  0.50000000  1.0
  Be  Be2855  1  0.50000000  0.25000000  0.75000000  1.0
  Be  Be2856  1  0.50000000  0.50000000  0.00000000  1.0
  Be  Be2857  1  0.50000000  0.50000000  0.25000000  1.0
  Be  Be2858  1  0.50000000  0.50000000  0.50000000  1.0
  Be  Be2859  1  0.50000000  0.50000000  0.75000000  1.0
  Be  Be2860  1  0.50000000  0.75000000  0.00000000  1.0
  Be  Be2861  1  0.50000000  0.75000000  0.25000000  1.0
  Be  Be2862  1  0.50000000  0.75000000  0.50000000  1.0
  Be  Be2863  1  0.50000000  0.75000000  0.75000000  1.0
  Be  Be2864  1  0.75000000  0.00000000  0.00000000  1.0
  Be  Be2865  1  0.75000000  0.00000000  0.25000000  1.0
  Be  Be2866  1  0.75000000  0.00000000  0.50000000  1.0
  Be  Be2867  1  0.75000000  0.00000000  0.75000000  1.0
  Be  Be2868  1  0.75000000  0.25000000  0.00000000  1.0
  Be  Be2869  1  0.75000000  0.25000000  0.25000000  1.0
  Be  Be2870  1  0.75000000  0.25000000  0.50000000  1.0
  Be  Be2871  1  0.75000000  0.25000000  0.75000000  1.0
  Be  Be2872  1  0.75000000  0.50000000  0.00000000  1.0
  Be  Be2873  1  0.75000000  0.50000000  0.25000000  1.0
  Be  Be2874  1  0.75000000  0.50000000  0.50000000  1.0
  Be  Be2875  1  0.75000000  0.50000000  0.75000000  1.0
  Be  Be2876  1  0.75000000  0.75000000  0.00000000  1.0
  Be  Be2877  1  0.75000000  0.75000000  0.25000000  1.0
  Be  Be2878  1  0.75000000  0.75000000  0.50000000  1.0
  Be  Be2879  1  0.75000000  0.75000000  0.75000000  1.0
  Be  Be2880  1  0.12500000  0.12500000  0.00000000  1.0
  Be  Be2881  1  0.12500000  0.12500000  0.25000000  1.0
  Be  Be2882  1  0.12500000  0.12500000  0.50000000  1.0
  Be  Be2883  1  0.12500000  0.12500000  0.75000000  1.0
  Be  Be2884  1  0.12500000  0.37500000  0.00000000  1.0
  Be  Be2885  1  0.12500000  0.37500000  0.25000000  1.0
  Be  Be2886  1  0.12500000  0.37500000  0.50000000  1.0
  Be  Be2887  1  0.12500000  0.37500000  0.75000000  1.0
  Be  Be2888  1  0.12500000  0.62500000  0.00000000  1.0
  Be  Be2889  1  0.12500000  0.62500000  0.25000000  1.0
  Be  Be2890  1  0.12500000  0.62500000  0.50000000  1.0
  Be  Be2891  1  0.12500000  0.62500000  0.75000000  1.0
  Be  Be2892  1  0.12500000  0.87500000  0.00000000  1.0
  Be  Be2893  1  0.12500000  0.87500000  0.25000000  1.0
  Be  Be2894  1  0.12500000  0.87500000  0.50000000  1.0
  Be  Be2895  1  0.12500000  0.87500000  0.75000000  1.0
  Be  Be2896  1  0.37500000  0.12500000  0.00000000  1.0
  Be  Be2897  1  0.37500000  0.12500000  0.25000000  1.0
  Be  Be2898  1  0.37500000  0.12500000  0.50000000  1.0
  Be  Be2899  1  0.37500000  0.12500000  0.75000000  1.0
  Be  Be2900  1  0.37500000  0.37500000  0.00000000  1.0
  Be  Be2901  1  0.37500000  0.37500000  0.25000000  1.0
  Be  Be2902  1  0.37500000  0.37500000  0.50000000  1.0
  Be  Be2903  1  0.37500000  0.37500000  0.75000000  1.0
  Be  Be2904  1  0.37500000  0.62500000  0.00000000  1.0
  Be  Be2905  1  0.37500000  0.62500000  0.25000000  1.0
  Be  Be2906  1  0.37500000  0.62500000  0.50000000  1.0
  Be  Be2907  1  0.37500000  0.62500000  0.75000000  1.0
  Be  Be2908  1  0.37500000  0.87500000  0.00000000  1.0
  Be  Be2909  1  0.37500000  0.87500000  0.25000000  1.0
  Be  Be2910  1  0.37500000  0.87500000  0.50000000  1.0
  Be  Be2911  1  0.37500000  0.87500000  0.75000000  1.0
  Be  Be2912  1  0.62500000  0.12500000  0.00000000  1.0
  Be  Be2913  1  0.62500000  0.12500000  0.25000000  1.0
  Be  Be2914  1  0.62500000  0.12500000  0.50000000  1.0
  Be  Be2915  1  0.62500000  0.12500000  0.75000000  1.0
  Be  Be2916  1  0.62500000  0.37500000  0.00000000  1.0
  Be  Be2917  1  0.62500000  0.37500000  0.25000000  1.0
  Be  Be2918  1  0.62500000  0.37500000  0.50000000  1.0
  Be  Be2919  1  0.62500000  0.37500000  0.75000000  1.0
  Be  Be2920  1  0.62500000  0.62500000  0.00000000  1.0
  Be  Be2921  1  0.62500000  0.62500000  0.25000000  1.0
  Be  Be2922  1  0.62500000  0.62500000  0.50000000  1.0
  Be  Be2923  1  0.62500000  0.62500000  0.75000000  1.0
  Be  Be2924  1  0.62500000  0.87500000  0.00000000  1.0
  Be  Be2925  1  0.62500000  0.87500000  0.25000000  1.0
  Be  Be2926  1  0.62500000  0.87500000  0.50000000  1.0
  Be  Be2927  1  0.62500000  0.87500000  0.75000000  1.0
  Be  Be2928  1  0.87500000  0.12500000  0.00000000  1.0
  Be  Be2929  1  0.87500000  0.12500000  0.25000000  1.0
  Be  Be2930  1  0.87500000  0.12500000  0.50000000  1.0
  Be  Be2931  1  0.87500000  0.12500000  0.75000000  1.0
  Be  Be2932  1  0.87500000  0.37500000  0.00000000  1.0
  Be  Be2933  1  0.87500000  0.37500000  0.25000000  1.0
  Be  Be2934  1  0.87500000  0.37500000  0.50000000  1.0
  Be  Be2935  1  0.87500000  0.37500000  0.75000000  1.0
  Be  Be2936  1  0.87500000  0.62500000  0.00000000  1.0
  Be  Be2937  1  0.87500000  0.62500000  0.25000000  1.0
  Be  Be2938  1  0.87500000  0.62500000  0.50000000  1.0
  Be  Be2939  1  0.87500000  0.62500000  0.75000000  1.0
  Be  Be2940  1  0.87500000  0.87500000  0.00000000  1.0
  Be  Be2941  1  0.87500000  0.87500000  0.25000000  1.0
  Be  Be2942  1  0.87500000  0.87500000  0.50000000  1.0
  Be  Be2943  1  0.87500000  0.87500000  0.75000000  1.0
  Be  Be2944  1  0.12500000  0.00000000  0.12500000  1.0
  Be  Be2945  1  0.12500000  0.00000000  0.37500000  1.0
  Be  Be2946  1  0.12500000  0.00000000  0.62500000  1.0
  Be  Be2947  1  0.12500000  0.00000000  0.87500000  1.0
  Be  Be2948  1  0.12500000  0.25000000  0.12500000  1.0
  Be  Be2949  1  0.12500000  0.25000000  0.37500000  1.0
  Be  Be2950  1  0.12500000  0.25000000  0.62500000  1.0
  Be  Be2951  1  0.12500000  0.25000000  0.87500000  1.0
  Be  Be2952  1  0.12500000  0.50000000  0.12500000  1.0
  Be  Be2953  1  0.12500000  0.50000000  0.37500000  1.0
  Be  Be2954  1  0.12500000  0.50000000  0.62500000  1.0
  Be  Be2955  1  0.12500000  0.50000000  0.87500000  1.0
  Be  Be2956  1  0.12500000  0.75000000  0.12500000  1.0
  Be  Be2957  1  0.12500000  0.75000000  0.37500000  1.0
  Be  Be2958  1  0.12500000  0.75000000  0.62500000  1.0
  Be  Be2959  1  0.12500000  0.75000000  0.87500000  1.0
  Be  Be2960  1  0.37500000  0.00000000  0.12500000  1.0
  Be  Be2961  1  0.37500000  0.00000000  0.37500000  1.0
  Be  Be2962  1  0.37500000  0.00000000  0.62500000  1.0
  Be  Be2963  1  0.37500000  0.00000000  0.87500000  1.0
  Be  Be2964  1  0.37500000  0.25000000  0.12500000  1.0
  Be  Be2965  1  0.37500000  0.25000000  0.37500000  1.0
  Be  Be2966  1  0.37500000  0.25000000  0.62500000  1.0
  Be  Be2967  1  0.37500000  0.25000000  0.87500000  1.0
  Be  Be2968  1  0.37500000  0.50000000  0.12500000  1.0
  Be  Be2969  1  0.37500000  0.50000000  0.37500000  1.0
  Be  Be2970  1  0.37500000  0.50000000  0.62500000  1.0
  Be  Be2971  1  0.37500000  0.50000000  0.87500000  1.0
  Be  Be2972  1  0.37500000  0.75000000  0.12500000  1.0
  Be  Be2973  1  0.37500000  0.75000000  0.37500000  1.0
  Be  Be2974  1  0.37500000  0.75000000  0.62500000  1.0
  Be  Be2975  1  0.37500000  0.75000000  0.87500000  1.0
  Be  Be2976  1  0.62500000  0.00000000  0.12500000  1.0
  Be  Be2977  1  0.62500000  0.00000000  0.37500000  1.0
  Be  Be2978  1  0.62500000  0.00000000  0.62500000  1.0
  Be  Be2979  1  0.62500000  0.00000000  0.87500000  1.0
  Be  Be2980  1  0.62500000  0.25000000  0.12500000  1.0
  Be  Be2981  1  0.62500000  0.25000000  0.37500000  1.0
  Be  Be2982  1  0.62500000  0.25000000  0.62500000  1.0
  Be  Be2983  1  0.62500000  0.25000000  0.87500000  1.0
  Be  Be2984  1  0.62500000  0.50000000  0.12500000  1.0
  Be  Be2985  1  0.62500000  0.50000000  0.37500000  1.0
  Be  Be2986  1  0.62500000  0.50000000  0.62500000  1.0
  Be  Be2987  1  0.62500000  0.50000000  0.87500000  1.0
  Be  Be2988  1  0.62500000  0.75000000  0.12500000  1.0
  Be  Be2989  1  0.62500000  0.75000000  0.37500000  1.0
  Be  Be2990  1  0.62500000  0.75000000  0.62500000  1.0
  Be  Be2991  1  0.62500000  0.75000000  0.87500000  1.0
  Be  Be2992  1  0.87500000  0.00000000  0.12500000  1.0
  Be  Be2993  1  0.87500000  0.00000000  0.37500000  1.0
  Be  Be2994  1  0.87500000  0.00000000  0.62500000  1.0
  Be  Be2995  1  0.87500000  0.00000000  0.87500000  1.0
  Be  Be2996  1  0.87500000  0.25000000  0.12500000  1.0
  Be  Be2997  1  0.87500000  0.25000000  0.37500000  1.0
  Be  Be2998  1  0.87500000  0.25000000  0.62500000  1.0
  Be  Be2999  1  0.87500000  0.25000000  0.87500000  1.0
  Be  Be3000  1  0.87500000  0.50000000  0.12500000  1.0
  Be  Be3001  1  0.87500000  0.50000000  0.37500000  1.0
  Be  Be3002  1  0.87500000  0.50000000  0.62500000  1.0
  Be  Be3003  1  0.87500000  0.50000000  0.87500000  1.0
  Be  Be3004  1  0.87500000  0.75000000  0.12500000  1.0
  Be  Be3005  1  0.87500000  0.75000000  0.37500000  1.0
  Be  Be3006  1  0.87500000  0.75000000  0.62500000  1.0
  Be  Be3007  1  0.87500000  0.75000000  0.87500000  1.0
  Be  Be3008  1  0.00000000  0.12500000  0.12500000  1.0
  Be  Be3009  1  0.00000000  0.12500000  0.37500000  1.0
  Be  Be3010  1  0.00000000  0.12500000  0.62500000  1.0
  Be  Be3011  1  0.00000000  0.12500000  0.87500000  1.0
  Be  Be3012  1  0.00000000  0.37500000  0.12500000  1.0
  Be  Be3013  1  0.00000000  0.37500000  0.37500000  1.0
  Be  Be3014  1  0.00000000  0.37500000  0.62500000  1.0
  Be  Be3015  1  0.00000000  0.37500000  0.87500000  1.0
  Be  Be3016  1  0.00000000  0.62500000  0.12500000  1.0
  Be  Be3017  1  0.00000000  0.62500000  0.37500000  1.0
  Be  Be3018  1  0.00000000  0.62500000  0.62500000  1.0
  Be  Be3019  1  0.00000000  0.62500000  0.87500000  1.0
  Be  Be3020  1  0.00000000  0.87500000  0.12500000  1.0
  Be  Be3021  1  0.00000000  0.87500000  0.37500000  1.0
  Be  Be3022  1  0.00000000  0.87500000  0.62500000  1.0
  Be  Be3023  1  0.00000000  0.87500000  0.87500000  1.0
  Be  Be3024  1  0.25000000  0.12500000  0.12500000  1.0
  Be  Be3025  1  0.25000000  0.12500000  0.37500000  1.0
  Be  Be3026  1  0.25000000  0.12500000  0.62500000  1.0
  Be  Be3027  1  0.25000000  0.12500000  0.87500000  1.0
  Be  Be3028  1  0.25000000  0.37500000  0.12500000  1.0
  Be  Be3029  1  0.25000000  0.37500000  0.37500000  1.0
  Be  Be3030  1  0.25000000  0.37500000  0.62500000  1.0
  Be  Be3031  1  0.25000000  0.37500000  0.87500000  1.0
  Be  Be3032  1  0.25000000  0.62500000  0.12500000  1.0
  Be  Be3033  1  0.25000000  0.62500000  0.37500000  1.0
  Be  Be3034  1  0.25000000  0.62500000  0.62500000  1.0
  Be  Be3035  1  0.25000000  0.62500000  0.87500000  1.0
  Be  Be3036  1  0.25000000  0.87500000  0.12500000  1.0
  Be  Be3037  1  0.25000000  0.87500000  0.37500000  1.0
  Be  Be3038  1  0.25000000  0.87500000  0.62500000  1.0
  Be  Be3039  1  0.25000000  0.87500000  0.87500000  1.0
  Be  Be3040  1  0.50000000  0.12500000  0.12500000  1.0
  Be  Be3041  1  0.50000000  0.12500000  0.37500000  1.0
  Be  Be3042  1  0.50000000  0.12500000  0.62500000  1.0
  Be  Be3043  1  0.50000000  0.12500000  0.87500000  1.0
  Be  Be3044  1  0.50000000  0.37500000  0.12500000  1.0
  Be  Be3045  1  0.50000000  0.37500000  0.37500000  1.0
  Be  Be3046  1  0.50000000  0.37500000  0.62500000  1.0
  Be  Be3047  1  0.50000000  0.37500000  0.87500000  1.0
  Be  Be3048  1  0.50000000  0.62500000  0.12500000  1.0
  Be  Be3049  1  0.50000000  0.62500000  0.37500000  1.0
  Be  Be3050  1  0.50000000  0.62500000  0.62500000  1.0
  Be  Be3051  1  0.50000000  0.62500000  0.87500000  1.0
  Be  Be3052  1  0.50000000  0.87500000  0.12500000  1.0
  Be  Be3053  1  0.50000000  0.87500000  0.37500000  1.0
  Be  Be3054  1  0.50000000  0.87500000  0.62500000  1.0
  Be  Be3055  1  0.50000000  0.87500000  0.87500000  1.0
  Be  Be3056  1  0.75000000  0.12500000  0.12500000  1.0
  Be  Be3057  1  0.75000000  0.12500000  0.37500000  1.0
  Be  Be3058  1  0.75000000  0.12500000  0.62500000  1.0
  Be  Be3059  1  0.75000000  0.12500000  0.87500000  1.0
  Be  Be3060  1  0.75000000  0.37500000  0.12500000  1.0
  Be  Be3061  1  0.75000000  0.37500000  0.37500000  1.0
  Be  Be3062  1  0.75000000  0.37500000  0.62500000  1.0
  Be  Be3063  1  0.75000000  0.37500000  0.87500000  1.0
  Be  Be3064  1  0.75000000  0.62500000  0.12500000  1.0
  Be  Be3065  1  0.75000000  0.62500000  0.37500000  1.0
  Be  Be3066  1  0.75000000  0.62500000  0.62500000  1.0
  Be  Be3067  1  0.75000000  0.62500000  0.87500000  1.0
  Be  Be3068  1  0.75000000  0.87500000  0.12500000  1.0
  Be  Be3069  1  0.75000000  0.87500000  0.37500000  1.0
  Be  Be3070  1  0.75000000  0.87500000  0.62500000  1.0
  Be  Be3071  1  0.75000000  0.87500000  0.87500000  1.0
  Nb  Nb3072  1  0.21875000  0.15625000  0.15625000  1.0
  Nb  Nb3073  1  0.21875000  0.15625000  0.40625000  1.0
  Nb  Nb3074  1  0.21875000  0.15625000  0.65625000  1.0
  Nb  Nb3075  1  0.21875000  0.15625000  0.90625000  1.0
  Nb  Nb3076  1  0.21875000  0.40625000  0.15625000  1.0
  Nb  Nb3077  1  0.21875000  0.40625000  0.40625000  1.0
  Nb  Nb3078  1  0.21875000  0.40625000  0.65625000  1.0
  Nb  Nb3079  1  0.21875000  0.40625000  0.90625000  1.0
  Nb  Nb3080  1  0.21875000  0.65625000  0.15625000  1.0
  Nb  Nb3081  1  0.21875000  0.65625000  0.40625000  1.0
  Nb  Nb3082  1  0.21875000  0.65625000  0.65625000  1.0
  Nb  Nb3083  1  0.21875000  0.65625000  0.90625000  1.0
  Nb  Nb3084  1  0.21875000  0.90625000  0.15625000  1.0
  Nb  Nb3085  1  0.21875000  0.90625000  0.40625000  1.0
  Nb  Nb3086  1  0.21875000  0.90625000  0.65625000  1.0
  Nb  Nb3087  1  0.21875000  0.90625000  0.90625000  1.0
  Nb  Nb3088  1  0.46875000  0.15625000  0.15625000  1.0
  Nb  Nb3089  1  0.46875000  0.15625000  0.40625000  1.0
  Nb  Nb3090  1  0.46875000  0.15625000  0.65625000  1.0
  Nb  Nb3091  1  0.46875000  0.15625000  0.90625000  1.0
  Nb  Nb3092  1  0.46875000  0.40625000  0.15625000  1.0
  Nb  Nb3093  1  0.46875000  0.40625000  0.40625000  1.0
  Nb  Nb3094  1  0.46875000  0.40625000  0.65625000  1.0
  Nb  Nb3095  1  0.46875000  0.40625000  0.90625000  1.0
  Nb  Nb3096  1  0.46875000  0.65625000  0.15625000  1.0
  Nb  Nb3097  1  0.46875000  0.65625000  0.40625000  1.0
  Nb  Nb3098  1  0.46875000  0.65625000  0.65625000  1.0
  Nb  Nb3099  1  0.46875000  0.65625000  0.90625000  1.0
  Nb  Nb3100  1  0.46875000  0.90625000  0.15625000  1.0
  Nb  Nb3101  1  0.46875000  0.90625000  0.40625000  1.0
  Nb  Nb3102  1  0.46875000  0.90625000  0.65625000  1.0
  Nb  Nb3103  1  0.46875000  0.90625000  0.90625000  1.0
  Nb  Nb3104  1  0.71875000  0.15625000  0.15625000  1.0
  Nb  Nb3105  1  0.71875000  0.15625000  0.40625000  1.0
  Nb  Nb3106  1  0.71875000  0.15625000  0.65625000  1.0
  Nb  Nb3107  1  0.71875000  0.15625000  0.90625000  1.0
  Nb  Nb3108  1  0.71875000  0.40625000  0.15625000  1.0
  Nb  Nb3109  1  0.71875000  0.40625000  0.40625000  1.0
  Nb  Nb3110  1  0.71875000  0.40625000  0.65625000  1.0
  Nb  Nb3111  1  0.71875000  0.40625000  0.90625000  1.0
  Nb  Nb3112  1  0.71875000  0.65625000  0.15625000  1.0
  Nb  Nb3113  1  0.71875000  0.65625000  0.40625000  1.0
  Nb  Nb3114  1  0.71875000  0.65625000  0.65625000  1.0
  Nb  Nb3115  1  0.71875000  0.65625000  0.90625000  1.0
  Nb  Nb3116  1  0.71875000  0.90625000  0.15625000  1.0
  Nb  Nb3117  1  0.71875000  0.90625000  0.40625000  1.0
  Nb  Nb3118  1  0.71875000  0.90625000  0.65625000  1.0
  Nb  Nb3119  1  0.71875000  0.90625000  0.90625000  1.0
  Nb  Nb3120  1  0.96875000  0.15625000  0.15625000  1.0
  Nb  Nb3121  1  0.96875000  0.15625000  0.40625000  1.0
  Nb  Nb3122  1  0.96875000  0.15625000  0.65625000  1.0
  Nb  Nb3123  1  0.96875000  0.15625000  0.90625000  1.0
  Nb  Nb3124  1  0.96875000  0.40625000  0.15625000  1.0
  Nb  Nb3125  1  0.96875000  0.40625000  0.40625000  1.0
  Nb  Nb3126  1  0.96875000  0.40625000  0.65625000  1.0
  Nb  Nb3127  1  0.96875000  0.40625000  0.90625000  1.0
  Nb  Nb3128  1  0.96875000  0.65625000  0.15625000  1.0
  Nb  Nb3129  1  0.96875000  0.65625000  0.40625000  1.0
  Nb  Nb3130  1  0.96875000  0.65625000  0.65625000  1.0
  Nb  Nb3131  1  0.96875000  0.65625000  0.90625000  1.0
  Nb  Nb3132  1  0.96875000  0.90625000  0.15625000  1.0
  Nb  Nb3133  1  0.96875000  0.90625000  0.40625000  1.0
  Nb  Nb3134  1  0.96875000  0.90625000  0.65625000  1.0
  Nb  Nb3135  1  0.96875000  0.90625000  0.90625000  1.0
  Nb  Nb3136  1  0.09375000  0.03125000  0.15625000  1.0
  Nb  Nb3137  1  0.09375000  0.03125000  0.40625000  1.0
  Nb  Nb3138  1  0.09375000  0.03125000  0.65625000  1.0
  Nb  Nb3139  1  0.09375000  0.03125000  0.90625000  1.0
  Nb  Nb3140  1  0.09375000  0.28125000  0.15625000  1.0
  Nb  Nb3141  1  0.09375000  0.28125000  0.40625000  1.0
  Nb  Nb3142  1  0.09375000  0.28125000  0.65625000  1.0
  Nb  Nb3143  1  0.09375000  0.28125000  0.90625000  1.0
  Nb  Nb3144  1  0.09375000  0.53125000  0.15625000  1.0
  Nb  Nb3145  1  0.09375000  0.53125000  0.40625000  1.0
  Nb  Nb3146  1  0.09375000  0.53125000  0.65625000  1.0
  Nb  Nb3147  1  0.09375000  0.53125000  0.90625000  1.0
  Nb  Nb3148  1  0.09375000  0.78125000  0.15625000  1.0
  Nb  Nb3149  1  0.09375000  0.78125000  0.40625000  1.0
  Nb  Nb3150  1  0.09375000  0.78125000  0.65625000  1.0
  Nb  Nb3151  1  0.09375000  0.78125000  0.90625000  1.0
  Nb  Nb3152  1  0.34375000  0.03125000  0.15625000  1.0
  Nb  Nb3153  1  0.34375000  0.03125000  0.40625000  1.0
  Nb  Nb3154  1  0.34375000  0.03125000  0.65625000  1.0
  Nb  Nb3155  1  0.34375000  0.03125000  0.90625000  1.0
  Nb  Nb3156  1  0.34375000  0.28125000  0.15625000  1.0
  Nb  Nb3157  1  0.34375000  0.28125000  0.40625000  1.0
  Nb  Nb3158  1  0.34375000  0.28125000  0.65625000  1.0
  Nb  Nb3159  1  0.34375000  0.28125000  0.90625000  1.0
  Nb  Nb3160  1  0.34375000  0.53125000  0.15625000  1.0
  Nb  Nb3161  1  0.34375000  0.53125000  0.40625000  1.0
  Nb  Nb3162  1  0.34375000  0.53125000  0.65625000  1.0
  Nb  Nb3163  1  0.34375000  0.53125000  0.90625000  1.0
  Nb  Nb3164  1  0.34375000  0.78125000  0.15625000  1.0
  Nb  Nb3165  1  0.34375000  0.78125000  0.40625000  1.0
  Nb  Nb3166  1  0.34375000  0.78125000  0.65625000  1.0
  Nb  Nb3167  1  0.34375000  0.78125000  0.90625000  1.0
  Nb  Nb3168  1  0.59375000  0.03125000  0.15625000  1.0
  Nb  Nb3169  1  0.59375000  0.03125000  0.40625000  1.0
  Nb  Nb3170  1  0.59375000  0.03125000  0.65625000  1.0
  Nb  Nb3171  1  0.59375000  0.03125000  0.90625000  1.0
  Nb  Nb3172  1  0.59375000  0.28125000  0.15625000  1.0
  Nb  Nb3173  1  0.59375000  0.28125000  0.40625000  1.0
  Nb  Nb3174  1  0.59375000  0.28125000  0.65625000  1.0
  Nb  Nb3175  1  0.59375000  0.28125000  0.90625000  1.0
  Nb  Nb3176  1  0.59375000  0.53125000  0.15625000  1.0
  Nb  Nb3177  1  0.59375000  0.53125000  0.40625000  1.0
  Nb  Nb3178  1  0.59375000  0.53125000  0.65625000  1.0
  Nb  Nb3179  1  0.59375000  0.53125000  0.90625000  1.0
  Nb  Nb3180  1  0.59375000  0.78125000  0.15625000  1.0
  Nb  Nb3181  1  0.59375000  0.78125000  0.40625000  1.0
  Nb  Nb3182  1  0.59375000  0.78125000  0.65625000  1.0
  Nb  Nb3183  1  0.59375000  0.78125000  0.90625000  1.0
  Nb  Nb3184  1  0.84375000  0.03125000  0.15625000  1.0
  Nb  Nb3185  1  0.84375000  0.03125000  0.40625000  1.0
  Nb  Nb3186  1  0.84375000  0.03125000  0.65625000  1.0
  Nb  Nb3187  1  0.84375000  0.03125000  0.90625000  1.0
  Nb  Nb3188  1  0.84375000  0.28125000  0.15625000  1.0
  Nb  Nb3189  1  0.84375000  0.28125000  0.40625000  1.0
  Nb  Nb3190  1  0.84375000  0.28125000  0.65625000  1.0
  Nb  Nb3191  1  0.84375000  0.28125000  0.90625000  1.0
  Nb  Nb3192  1  0.84375000  0.53125000  0.15625000  1.0
  Nb  Nb3193  1  0.84375000  0.53125000  0.40625000  1.0
  Nb  Nb3194  1  0.84375000  0.53125000  0.65625000  1.0
  Nb  Nb3195  1  0.84375000  0.53125000  0.90625000  1.0
  Nb  Nb3196  1  0.84375000  0.78125000  0.15625000  1.0
  Nb  Nb3197  1  0.84375000  0.78125000  0.40625000  1.0
  Nb  Nb3198  1  0.84375000  0.78125000  0.65625000  1.0
  Nb  Nb3199  1  0.84375000  0.78125000  0.90625000  1.0
  Nb  Nb3200  1  0.09375000  0.15625000  0.03125000  1.0
  Nb  Nb3201  1  0.09375000  0.15625000  0.28125000  1.0
  Nb  Nb3202  1  0.09375000  0.15625000  0.53125000  1.0
  Nb  Nb3203  1  0.09375000  0.15625000  0.78125000  1.0
  Nb  Nb3204  1  0.09375000  0.40625000  0.03125000  1.0
  Nb  Nb3205  1  0.09375000  0.40625000  0.28125000  1.0
  Nb  Nb3206  1  0.09375000  0.40625000  0.53125000  1.0
  Nb  Nb3207  1  0.09375000  0.40625000  0.78125000  1.0
  Nb  Nb3208  1  0.09375000  0.65625000  0.03125000  1.0
  Nb  Nb3209  1  0.09375000  0.65625000  0.28125000  1.0
  Nb  Nb3210  1  0.09375000  0.65625000  0.53125000  1.0
  Nb  Nb3211  1  0.09375000  0.65625000  0.78125000  1.0
  Nb  Nb3212  1  0.09375000  0.90625000  0.03125000  1.0
  Nb  Nb3213  1  0.09375000  0.90625000  0.28125000  1.0
  Nb  Nb3214  1  0.09375000  0.90625000  0.53125000  1.0
  Nb  Nb3215  1  0.09375000  0.90625000  0.78125000  1.0
  Nb  Nb3216  1  0.34375000  0.15625000  0.03125000  1.0
  Nb  Nb3217  1  0.34375000  0.15625000  0.28125000  1.0
  Nb  Nb3218  1  0.34375000  0.15625000  0.53125000  1.0
  Nb  Nb3219  1  0.34375000  0.15625000  0.78125000  1.0
  Nb  Nb3220  1  0.34375000  0.40625000  0.03125000  1.0
  Nb  Nb3221  1  0.34375000  0.40625000  0.28125000  1.0
  Nb  Nb3222  1  0.34375000  0.40625000  0.53125000  1.0
  Nb  Nb3223  1  0.34375000  0.40625000  0.78125000  1.0
  Nb  Nb3224  1  0.34375000  0.65625000  0.03125000  1.0
  Nb  Nb3225  1  0.34375000  0.65625000  0.28125000  1.0
  Nb  Nb3226  1  0.34375000  0.65625000  0.53125000  1.0
  Nb  Nb3227  1  0.34375000  0.65625000  0.78125000  1.0
  Nb  Nb3228  1  0.34375000  0.90625000  0.03125000  1.0
  Nb  Nb3229  1  0.34375000  0.90625000  0.28125000  1.0
  Nb  Nb3230  1  0.34375000  0.90625000  0.53125000  1.0
  Nb  Nb3231  1  0.34375000  0.90625000  0.78125000  1.0
  Nb  Nb3232  1  0.59375000  0.15625000  0.03125000  1.0
  Nb  Nb3233  1  0.59375000  0.15625000  0.28125000  1.0
  Nb  Nb3234  1  0.59375000  0.15625000  0.53125000  1.0
  Nb  Nb3235  1  0.59375000  0.15625000  0.78125000  1.0
  Nb  Nb3236  1  0.59375000  0.40625000  0.03125000  1.0
  Nb  Nb3237  1  0.59375000  0.40625000  0.28125000  1.0
  Nb  Nb3238  1  0.59375000  0.40625000  0.53125000  1.0
  Nb  Nb3239  1  0.59375000  0.40625000  0.78125000  1.0
  Nb  Nb3240  1  0.59375000  0.65625000  0.03125000  1.0
  Nb  Nb3241  1  0.59375000  0.65625000  0.28125000  1.0
  Nb  Nb3242  1  0.59375000  0.65625000  0.53125000  1.0
  Nb  Nb3243  1  0.59375000  0.65625000  0.78125000  1.0
  Nb  Nb3244  1  0.59375000  0.90625000  0.03125000  1.0
  Nb  Nb3245  1  0.59375000  0.90625000  0.28125000  1.0
  Nb  Nb3246  1  0.59375000  0.90625000  0.53125000  1.0
  Nb  Nb3247  1  0.59375000  0.90625000  0.78125000  1.0
  Nb  Nb3248  1  0.84375000  0.15625000  0.03125000  1.0
  Nb  Nb3249  1  0.84375000  0.15625000  0.28125000  1.0
  Nb  Nb3250  1  0.84375000  0.15625000  0.53125000  1.0
  Nb  Nb3251  1  0.84375000  0.15625000  0.78125000  1.0
  Nb  Nb3252  1  0.84375000  0.40625000  0.03125000  1.0
  Nb  Nb3253  1  0.84375000  0.40625000  0.28125000  1.0
  Nb  Nb3254  1  0.84375000  0.40625000  0.53125000  1.0
  Nb  Nb3255  1  0.84375000  0.40625000  0.78125000  1.0
  Nb  Nb3256  1  0.84375000  0.65625000  0.03125000  1.0
  Nb  Nb3257  1  0.84375000  0.65625000  0.28125000  1.0
  Nb  Nb3258  1  0.84375000  0.65625000  0.53125000  1.0
  Nb  Nb3259  1  0.84375000  0.65625000  0.78125000  1.0
  Nb  Nb3260  1  0.84375000  0.90625000  0.03125000  1.0
  Nb  Nb3261  1  0.84375000  0.90625000  0.28125000  1.0
  Nb  Nb3262  1  0.84375000  0.90625000  0.53125000  1.0
  Nb  Nb3263  1  0.84375000  0.90625000  0.78125000  1.0
  Nb  Nb3264  1  0.21875000  0.03125000  0.03125000  1.0
  Nb  Nb3265  1  0.21875000  0.03125000  0.28125000  1.0
  Nb  Nb3266  1  0.21875000  0.03125000  0.53125000  1.0
  Nb  Nb3267  1  0.21875000  0.03125000  0.78125000  1.0
  Nb  Nb3268  1  0.21875000  0.28125000  0.03125000  1.0
  Nb  Nb3269  1  0.21875000  0.28125000  0.28125000  1.0
  Nb  Nb3270  1  0.21875000  0.28125000  0.53125000  1.0
  Nb  Nb3271  1  0.21875000  0.28125000  0.78125000  1.0
  Nb  Nb3272  1  0.21875000  0.53125000  0.03125000  1.0
  Nb  Nb3273  1  0.21875000  0.53125000  0.28125000  1.0
  Nb  Nb3274  1  0.21875000  0.53125000  0.53125000  1.0
  Nb  Nb3275  1  0.21875000  0.53125000  0.78125000  1.0
  Nb  Nb3276  1  0.21875000  0.78125000  0.03125000  1.0
  Nb  Nb3277  1  0.21875000  0.78125000  0.28125000  1.0
  Nb  Nb3278  1  0.21875000  0.78125000  0.53125000  1.0
  Nb  Nb3279  1  0.21875000  0.78125000  0.78125000  1.0
  Nb  Nb3280  1  0.46875000  0.03125000  0.03125000  1.0
  Nb  Nb3281  1  0.46875000  0.03125000  0.28125000  1.0
  Nb  Nb3282  1  0.46875000  0.03125000  0.53125000  1.0
  Nb  Nb3283  1  0.46875000  0.03125000  0.78125000  1.0
  Nb  Nb3284  1  0.46875000  0.28125000  0.03125000  1.0
  Nb  Nb3285  1  0.46875000  0.28125000  0.28125000  1.0
  Nb  Nb3286  1  0.46875000  0.28125000  0.53125000  1.0
  Nb  Nb3287  1  0.46875000  0.28125000  0.78125000  1.0
  Nb  Nb3288  1  0.46875000  0.53125000  0.03125000  1.0
  Nb  Nb3289  1  0.46875000  0.53125000  0.28125000  1.0
  Nb  Nb3290  1  0.46875000  0.53125000  0.53125000  1.0
  Nb  Nb3291  1  0.46875000  0.53125000  0.78125000  1.0
  Nb  Nb3292  1  0.46875000  0.78125000  0.03125000  1.0
  Nb  Nb3293  1  0.46875000  0.78125000  0.28125000  1.0
  Nb  Nb3294  1  0.46875000  0.78125000  0.53125000  1.0
  Nb  Nb3295  1  0.46875000  0.78125000  0.78125000  1.0
  Nb  Nb3296  1  0.71875000  0.03125000  0.03125000  1.0
  Nb  Nb3297  1  0.71875000  0.03125000  0.28125000  1.0
  Nb  Nb3298  1  0.71875000  0.03125000  0.53125000  1.0
  Nb  Nb3299  1  0.71875000  0.03125000  0.78125000  1.0
  Nb  Nb3300  1  0.71875000  0.28125000  0.03125000  1.0
  Nb  Nb3301  1  0.71875000  0.28125000  0.28125000  1.0
  Nb  Nb3302  1  0.71875000  0.28125000  0.53125000  1.0
  Nb  Nb3303  1  0.71875000  0.28125000  0.78125000  1.0
  Nb  Nb3304  1  0.71875000  0.53125000  0.03125000  1.0
  Nb  Nb3305  1  0.71875000  0.53125000  0.28125000  1.0
  Nb  Nb3306  1  0.71875000  0.53125000  0.53125000  1.0
  Nb  Nb3307  1  0.71875000  0.53125000  0.78125000  1.0
  Nb  Nb3308  1  0.71875000  0.78125000  0.03125000  1.0
  Nb  Nb3309  1  0.71875000  0.78125000  0.28125000  1.0
  Nb  Nb3310  1  0.71875000  0.78125000  0.53125000  1.0
  Nb  Nb3311  1  0.71875000  0.78125000  0.78125000  1.0
  Nb  Nb3312  1  0.96875000  0.03125000  0.03125000  1.0
  Nb  Nb3313  1  0.96875000  0.03125000  0.28125000  1.0
  Nb  Nb3314  1  0.96875000  0.03125000  0.53125000  1.0
  Nb  Nb3315  1  0.96875000  0.03125000  0.78125000  1.0
  Nb  Nb3316  1  0.96875000  0.28125000  0.03125000  1.0
  Nb  Nb3317  1  0.96875000  0.28125000  0.28125000  1.0
  Nb  Nb3318  1  0.96875000  0.28125000  0.53125000  1.0
  Nb  Nb3319  1  0.96875000  0.28125000  0.78125000  1.0
  Nb  Nb3320  1  0.96875000  0.53125000  0.03125000  1.0
  Nb  Nb3321  1  0.96875000  0.53125000  0.28125000  1.0
  Nb  Nb3322  1  0.96875000  0.53125000  0.53125000  1.0
  Nb  Nb3323  1  0.96875000  0.53125000  0.78125000  1.0
  Nb  Nb3324  1  0.96875000  0.78125000  0.03125000  1.0
  Nb  Nb3325  1  0.96875000  0.78125000  0.28125000  1.0
  Nb  Nb3326  1  0.96875000  0.78125000  0.53125000  1.0
  Nb  Nb3327  1  0.96875000  0.78125000  0.78125000  1.0
  Nb  Nb3328  1  0.15625000  0.21875000  0.15625000  1.0
  Nb  Nb3329  1  0.15625000  0.21875000  0.40625000  1.0
  Nb  Nb3330  1  0.15625000  0.21875000  0.65625000  1.0
  Nb  Nb3331  1  0.15625000  0.21875000  0.90625000  1.0
  Nb  Nb3332  1  0.15625000  0.46875000  0.15625000  1.0
  Nb  Nb3333  1  0.15625000  0.46875000  0.40625000  1.0
  Nb  Nb3334  1  0.15625000  0.46875000  0.65625000  1.0
  Nb  Nb3335  1  0.15625000  0.46875000  0.90625000  1.0
  Nb  Nb3336  1  0.15625000  0.71875000  0.15625000  1.0
  Nb  Nb3337  1  0.15625000  0.71875000  0.40625000  1.0
  Nb  Nb3338  1  0.15625000  0.71875000  0.65625000  1.0
  Nb  Nb3339  1  0.15625000  0.71875000  0.90625000  1.0
  Nb  Nb3340  1  0.15625000  0.96875000  0.15625000  1.0
  Nb  Nb3341  1  0.15625000  0.96875000  0.40625000  1.0
  Nb  Nb3342  1  0.15625000  0.96875000  0.65625000  1.0
  Nb  Nb3343  1  0.15625000  0.96875000  0.90625000  1.0
  Nb  Nb3344  1  0.40625000  0.21875000  0.15625000  1.0
  Nb  Nb3345  1  0.40625000  0.21875000  0.40625000  1.0
  Nb  Nb3346  1  0.40625000  0.21875000  0.65625000  1.0
  Nb  Nb3347  1  0.40625000  0.21875000  0.90625000  1.0
  Nb  Nb3348  1  0.40625000  0.46875000  0.15625000  1.0
  Nb  Nb3349  1  0.40625000  0.46875000  0.40625000  1.0
  Nb  Nb3350  1  0.40625000  0.46875000  0.65625000  1.0
  Nb  Nb3351  1  0.40625000  0.46875000  0.90625000  1.0
  Nb  Nb3352  1  0.40625000  0.71875000  0.15625000  1.0
  Nb  Nb3353  1  0.40625000  0.71875000  0.40625000  1.0
  Nb  Nb3354  1  0.40625000  0.71875000  0.65625000  1.0
  Nb  Nb3355  1  0.40625000  0.71875000  0.90625000  1.0
  Nb  Nb3356  1  0.40625000  0.96875000  0.15625000  1.0
  Nb  Nb3357  1  0.40625000  0.96875000  0.40625000  1.0
  Nb  Nb3358  1  0.40625000  0.96875000  0.65625000  1.0
  Nb  Nb3359  1  0.40625000  0.96875000  0.90625000  1.0
  Nb  Nb3360  1  0.65625000  0.21875000  0.15625000  1.0
  Nb  Nb3361  1  0.65625000  0.21875000  0.40625000  1.0
  Nb  Nb3362  1  0.65625000  0.21875000  0.65625000  1.0
  Nb  Nb3363  1  0.65625000  0.21875000  0.90625000  1.0
  Nb  Nb3364  1  0.65625000  0.46875000  0.15625000  1.0
  Nb  Nb3365  1  0.65625000  0.46875000  0.40625000  1.0
  Nb  Nb3366  1  0.65625000  0.46875000  0.65625000  1.0
  Nb  Nb3367  1  0.65625000  0.46875000  0.90625000  1.0
  Nb  Nb3368  1  0.65625000  0.71875000  0.15625000  1.0
  Nb  Nb3369  1  0.65625000  0.71875000  0.40625000  1.0
  Nb  Nb3370  1  0.65625000  0.71875000  0.65625000  1.0
  Nb  Nb3371  1  0.65625000  0.71875000  0.90625000  1.0
  Nb  Nb3372  1  0.65625000  0.96875000  0.15625000  1.0
  Nb  Nb3373  1  0.65625000  0.96875000  0.40625000  1.0
  Nb  Nb3374  1  0.65625000  0.96875000  0.65625000  1.0
  Nb  Nb3375  1  0.65625000  0.96875000  0.90625000  1.0
  Nb  Nb3376  1  0.90625000  0.21875000  0.15625000  1.0
  Nb  Nb3377  1  0.90625000  0.21875000  0.40625000  1.0
  Nb  Nb3378  1  0.90625000  0.21875000  0.65625000  1.0
  Nb  Nb3379  1  0.90625000  0.21875000  0.90625000  1.0
  Nb  Nb3380  1  0.90625000  0.46875000  0.15625000  1.0
  Nb  Nb3381  1  0.90625000  0.46875000  0.40625000  1.0
  Nb  Nb3382  1  0.90625000  0.46875000  0.65625000  1.0
  Nb  Nb3383  1  0.90625000  0.46875000  0.90625000  1.0
  Nb  Nb3384  1  0.90625000  0.71875000  0.15625000  1.0
  Nb  Nb3385  1  0.90625000  0.71875000  0.40625000  1.0
  Nb  Nb3386  1  0.90625000  0.71875000  0.65625000  1.0
  Nb  Nb3387  1  0.90625000  0.71875000  0.90625000  1.0
  Nb  Nb3388  1  0.90625000  0.96875000  0.15625000  1.0
  Nb  Nb3389  1  0.90625000  0.96875000  0.40625000  1.0
  Nb  Nb3390  1  0.90625000  0.96875000  0.65625000  1.0
  Nb  Nb3391  1  0.90625000  0.96875000  0.90625000  1.0
  Nb  Nb3392  1  0.03125000  0.09375000  0.15625000  1.0
  Nb  Nb3393  1  0.03125000  0.09375000  0.40625000  1.0
  Nb  Nb3394  1  0.03125000  0.09375000  0.65625000  1.0
  Nb  Nb3395  1  0.03125000  0.09375000  0.90625000  1.0
  Nb  Nb3396  1  0.03125000  0.34375000  0.15625000  1.0
  Nb  Nb3397  1  0.03125000  0.34375000  0.40625000  1.0
  Nb  Nb3398  1  0.03125000  0.34375000  0.65625000  1.0
  Nb  Nb3399  1  0.03125000  0.34375000  0.90625000  1.0
  Nb  Nb3400  1  0.03125000  0.59375000  0.15625000  1.0
  Nb  Nb3401  1  0.03125000  0.59375000  0.40625000  1.0
  Nb  Nb3402  1  0.03125000  0.59375000  0.65625000  1.0
  Nb  Nb3403  1  0.03125000  0.59375000  0.90625000  1.0
  Nb  Nb3404  1  0.03125000  0.84375000  0.15625000  1.0
  Nb  Nb3405  1  0.03125000  0.84375000  0.40625000  1.0
  Nb  Nb3406  1  0.03125000  0.84375000  0.65625000  1.0
  Nb  Nb3407  1  0.03125000  0.84375000  0.90625000  1.0
  Nb  Nb3408  1  0.28125000  0.09375000  0.15625000  1.0
  Nb  Nb3409  1  0.28125000  0.09375000  0.40625000  1.0
  Nb  Nb3410  1  0.28125000  0.09375000  0.65625000  1.0
  Nb  Nb3411  1  0.28125000  0.09375000  0.90625000  1.0
  Nb  Nb3412  1  0.28125000  0.34375000  0.15625000  1.0
  Nb  Nb3413  1  0.28125000  0.34375000  0.40625000  1.0
  Nb  Nb3414  1  0.28125000  0.34375000  0.65625000  1.0
  Nb  Nb3415  1  0.28125000  0.34375000  0.90625000  1.0
  Nb  Nb3416  1  0.28125000  0.59375000  0.15625000  1.0
  Nb  Nb3417  1  0.28125000  0.59375000  0.40625000  1.0
  Nb  Nb3418  1  0.28125000  0.59375000  0.65625000  1.0
  Nb  Nb3419  1  0.28125000  0.59375000  0.90625000  1.0
  Nb  Nb3420  1  0.28125000  0.84375000  0.15625000  1.0
  Nb  Nb3421  1  0.28125000  0.84375000  0.40625000  1.0
  Nb  Nb3422  1  0.28125000  0.84375000  0.65625000  1.0
  Nb  Nb3423  1  0.28125000  0.84375000  0.90625000  1.0
  Nb  Nb3424  1  0.53125000  0.09375000  0.15625000  1.0
  Nb  Nb3425  1  0.53125000  0.09375000  0.40625000  1.0
  Nb  Nb3426  1  0.53125000  0.09375000  0.65625000  1.0
  Nb  Nb3427  1  0.53125000  0.09375000  0.90625000  1.0
  Nb  Nb3428  1  0.53125000  0.34375000  0.15625000  1.0
  Nb  Nb3429  1  0.53125000  0.34375000  0.40625000  1.0
  Nb  Nb3430  1  0.53125000  0.34375000  0.65625000  1.0
  Nb  Nb3431  1  0.53125000  0.34375000  0.90625000  1.0
  Nb  Nb3432  1  0.53125000  0.59375000  0.15625000  1.0
  Nb  Nb3433  1  0.53125000  0.59375000  0.40625000  1.0
  Nb  Nb3434  1  0.53125000  0.59375000  0.65625000  1.0
  Nb  Nb3435  1  0.53125000  0.59375000  0.90625000  1.0
  Nb  Nb3436  1  0.53125000  0.84375000  0.15625000  1.0
  Nb  Nb3437  1  0.53125000  0.84375000  0.40625000  1.0
  Nb  Nb3438  1  0.53125000  0.84375000  0.65625000  1.0
  Nb  Nb3439  1  0.53125000  0.84375000  0.90625000  1.0
  Nb  Nb3440  1  0.78125000  0.09375000  0.15625000  1.0
  Nb  Nb3441  1  0.78125000  0.09375000  0.40625000  1.0
  Nb  Nb3442  1  0.78125000  0.09375000  0.65625000  1.0
  Nb  Nb3443  1  0.78125000  0.09375000  0.90625000  1.0
  Nb  Nb3444  1  0.78125000  0.34375000  0.15625000  1.0
  Nb  Nb3445  1  0.78125000  0.34375000  0.40625000  1.0
  Nb  Nb3446  1  0.78125000  0.34375000  0.65625000  1.0
  Nb  Nb3447  1  0.78125000  0.34375000  0.90625000  1.0
  Nb  Nb3448  1  0.78125000  0.59375000  0.15625000  1.0
  Nb  Nb3449  1  0.78125000  0.59375000  0.40625000  1.0
  Nb  Nb3450  1  0.78125000  0.59375000  0.65625000  1.0
  Nb  Nb3451  1  0.78125000  0.59375000  0.90625000  1.0
  Nb  Nb3452  1  0.78125000  0.84375000  0.15625000  1.0
  Nb  Nb3453  1  0.78125000  0.84375000  0.40625000  1.0
  Nb  Nb3454  1  0.78125000  0.84375000  0.65625000  1.0
  Nb  Nb3455  1  0.78125000  0.84375000  0.90625000  1.0
  Nb  Nb3456  1  0.03125000  0.21875000  0.03125000  1.0
  Nb  Nb3457  1  0.03125000  0.21875000  0.28125000  1.0
  Nb  Nb3458  1  0.03125000  0.21875000  0.53125000  1.0
  Nb  Nb3459  1  0.03125000  0.21875000  0.78125000  1.0
  Nb  Nb3460  1  0.03125000  0.46875000  0.03125000  1.0
  Nb  Nb3461  1  0.03125000  0.46875000  0.28125000  1.0
  Nb  Nb3462  1  0.03125000  0.46875000  0.53125000  1.0
  Nb  Nb3463  1  0.03125000  0.46875000  0.78125000  1.0
  Nb  Nb3464  1  0.03125000  0.71875000  0.03125000  1.0
  Nb  Nb3465  1  0.03125000  0.71875000  0.28125000  1.0
  Nb  Nb3466  1  0.03125000  0.71875000  0.53125000  1.0
  Nb  Nb3467  1  0.03125000  0.71875000  0.78125000  1.0
  Nb  Nb3468  1  0.03125000  0.96875000  0.03125000  1.0
  Nb  Nb3469  1  0.03125000  0.96875000  0.28125000  1.0
  Nb  Nb3470  1  0.03125000  0.96875000  0.53125000  1.0
  Nb  Nb3471  1  0.03125000  0.96875000  0.78125000  1.0
  Nb  Nb3472  1  0.28125000  0.21875000  0.03125000  1.0
  Nb  Nb3473  1  0.28125000  0.21875000  0.28125000  1.0
  Nb  Nb3474  1  0.28125000  0.21875000  0.53125000  1.0
  Nb  Nb3475  1  0.28125000  0.21875000  0.78125000  1.0
  Nb  Nb3476  1  0.28125000  0.46875000  0.03125000  1.0
  Nb  Nb3477  1  0.28125000  0.46875000  0.28125000  1.0
  Nb  Nb3478  1  0.28125000  0.46875000  0.53125000  1.0
  Nb  Nb3479  1  0.28125000  0.46875000  0.78125000  1.0
  Nb  Nb3480  1  0.28125000  0.71875000  0.03125000  1.0
  Nb  Nb3481  1  0.28125000  0.71875000  0.28125000  1.0
  Nb  Nb3482  1  0.28125000  0.71875000  0.53125000  1.0
  Nb  Nb3483  1  0.28125000  0.71875000  0.78125000  1.0
  Nb  Nb3484  1  0.28125000  0.96875000  0.03125000  1.0
  Nb  Nb3485  1  0.28125000  0.96875000  0.28125000  1.0
  Nb  Nb3486  1  0.28125000  0.96875000  0.53125000  1.0
  Nb  Nb3487  1  0.28125000  0.96875000  0.78125000  1.0
  Nb  Nb3488  1  0.53125000  0.21875000  0.03125000  1.0
  Nb  Nb3489  1  0.53125000  0.21875000  0.28125000  1.0
  Nb  Nb3490  1  0.53125000  0.21875000  0.53125000  1.0
  Nb  Nb3491  1  0.53125000  0.21875000  0.78125000  1.0
  Nb  Nb3492  1  0.53125000  0.46875000  0.03125000  1.0
  Nb  Nb3493  1  0.53125000  0.46875000  0.28125000  1.0
  Nb  Nb3494  1  0.53125000  0.46875000  0.53125000  1.0
  Nb  Nb3495  1  0.53125000  0.46875000  0.78125000  1.0
  Nb  Nb3496  1  0.53125000  0.71875000  0.03125000  1.0
  Nb  Nb3497  1  0.53125000  0.71875000  0.28125000  1.0
  Nb  Nb3498  1  0.53125000  0.71875000  0.53125000  1.0
  Nb  Nb3499  1  0.53125000  0.71875000  0.78125000  1.0
  Nb  Nb3500  1  0.53125000  0.96875000  0.03125000  1.0
  Nb  Nb3501  1  0.53125000  0.96875000  0.28125000  1.0
  Nb  Nb3502  1  0.53125000  0.96875000  0.53125000  1.0
  Nb  Nb3503  1  0.53125000  0.96875000  0.78125000  1.0
  Nb  Nb3504  1  0.78125000  0.21875000  0.03125000  1.0
  Nb  Nb3505  1  0.78125000  0.21875000  0.28125000  1.0
  Nb  Nb3506  1  0.78125000  0.21875000  0.53125000  1.0
  Nb  Nb3507  1  0.78125000  0.21875000  0.78125000  1.0
  Nb  Nb3508  1  0.78125000  0.46875000  0.03125000  1.0
  Nb  Nb3509  1  0.78125000  0.46875000  0.28125000  1.0
  Nb  Nb3510  1  0.78125000  0.46875000  0.53125000  1.0
  Nb  Nb3511  1  0.78125000  0.46875000  0.78125000  1.0
  Nb  Nb3512  1  0.78125000  0.71875000  0.03125000  1.0
  Nb  Nb3513  1  0.78125000  0.71875000  0.28125000  1.0
  Nb  Nb3514  1  0.78125000  0.71875000  0.53125000  1.0
  Nb  Nb3515  1  0.78125000  0.71875000  0.78125000  1.0
  Nb  Nb3516  1  0.78125000  0.96875000  0.03125000  1.0
  Nb  Nb3517  1  0.78125000  0.96875000  0.28125000  1.0
  Nb  Nb3518  1  0.78125000  0.96875000  0.53125000  1.0
  Nb  Nb3519  1  0.78125000  0.96875000  0.78125000  1.0
  Nb  Nb3520  1  0.15625000  0.09375000  0.03125000  1.0
  Nb  Nb3521  1  0.15625000  0.09375000  0.28125000  1.0
  Nb  Nb3522  1  0.15625000  0.09375000  0.53125000  1.0
  Nb  Nb3523  1  0.15625000  0.09375000  0.78125000  1.0
  Nb  Nb3524  1  0.15625000  0.34375000  0.03125000  1.0
  Nb  Nb3525  1  0.15625000  0.34375000  0.28125000  1.0
  Nb  Nb3526  1  0.15625000  0.34375000  0.53125000  1.0
  Nb  Nb3527  1  0.15625000  0.34375000  0.78125000  1.0
  Nb  Nb3528  1  0.15625000  0.59375000  0.03125000  1.0
  Nb  Nb3529  1  0.15625000  0.59375000  0.28125000  1.0
  Nb  Nb3530  1  0.15625000  0.59375000  0.53125000  1.0
  Nb  Nb3531  1  0.15625000  0.59375000  0.78125000  1.0
  Nb  Nb3532  1  0.15625000  0.84375000  0.03125000  1.0
  Nb  Nb3533  1  0.15625000  0.84375000  0.28125000  1.0
  Nb  Nb3534  1  0.15625000  0.84375000  0.53125000  1.0
  Nb  Nb3535  1  0.15625000  0.84375000  0.78125000  1.0
  Nb  Nb3536  1  0.40625000  0.09375000  0.03125000  1.0
  Nb  Nb3537  1  0.40625000  0.09375000  0.28125000  1.0
  Nb  Nb3538  1  0.40625000  0.09375000  0.53125000  1.0
  Nb  Nb3539  1  0.40625000  0.09375000  0.78125000  1.0
  Nb  Nb3540  1  0.40625000  0.34375000  0.03125000  1.0
  Nb  Nb3541  1  0.40625000  0.34375000  0.28125000  1.0
  Nb  Nb3542  1  0.40625000  0.34375000  0.53125000  1.0
  Nb  Nb3543  1  0.40625000  0.34375000  0.78125000  1.0
  Nb  Nb3544  1  0.40625000  0.59375000  0.03125000  1.0
  Nb  Nb3545  1  0.40625000  0.59375000  0.28125000  1.0
  Nb  Nb3546  1  0.40625000  0.59375000  0.53125000  1.0
  Nb  Nb3547  1  0.40625000  0.59375000  0.78125000  1.0
  Nb  Nb3548  1  0.40625000  0.84375000  0.03125000  1.0
  Nb  Nb3549  1  0.40625000  0.84375000  0.28125000  1.0
  Nb  Nb3550  1  0.40625000  0.84375000  0.53125000  1.0
  Nb  Nb3551  1  0.40625000  0.84375000  0.78125000  1.0
  Nb  Nb3552  1  0.65625000  0.09375000  0.03125000  1.0
  Nb  Nb3553  1  0.65625000  0.09375000  0.28125000  1.0
  Nb  Nb3554  1  0.65625000  0.09375000  0.53125000  1.0
  Nb  Nb3555  1  0.65625000  0.09375000  0.78125000  1.0
  Nb  Nb3556  1  0.65625000  0.34375000  0.03125000  1.0
  Nb  Nb3557  1  0.65625000  0.34375000  0.28125000  1.0
  Nb  Nb3558  1  0.65625000  0.34375000  0.53125000  1.0
  Nb  Nb3559  1  0.65625000  0.34375000  0.78125000  1.0
  Nb  Nb3560  1  0.65625000  0.59375000  0.03125000  1.0
  Nb  Nb3561  1  0.65625000  0.59375000  0.28125000  1.0
  Nb  Nb3562  1  0.65625000  0.59375000  0.53125000  1.0
  Nb  Nb3563  1  0.65625000  0.59375000  0.78125000  1.0
  Nb  Nb3564  1  0.65625000  0.84375000  0.03125000  1.0
  Nb  Nb3565  1  0.65625000  0.84375000  0.28125000  1.0
  Nb  Nb3566  1  0.65625000  0.84375000  0.53125000  1.0
  Nb  Nb3567  1  0.65625000  0.84375000  0.78125000  1.0
  Nb  Nb3568  1  0.90625000  0.09375000  0.03125000  1.0
  Nb  Nb3569  1  0.90625000  0.09375000  0.28125000  1.0
  Nb  Nb3570  1  0.90625000  0.09375000  0.53125000  1.0
  Nb  Nb3571  1  0.90625000  0.09375000  0.78125000  1.0
  Nb  Nb3572  1  0.90625000  0.34375000  0.03125000  1.0
  Nb  Nb3573  1  0.90625000  0.34375000  0.28125000  1.0
  Nb  Nb3574  1  0.90625000  0.34375000  0.53125000  1.0
  Nb  Nb3575  1  0.90625000  0.34375000  0.78125000  1.0
  Nb  Nb3576  1  0.90625000  0.59375000  0.03125000  1.0
  Nb  Nb3577  1  0.90625000  0.59375000  0.28125000  1.0
  Nb  Nb3578  1  0.90625000  0.59375000  0.53125000  1.0
  Nb  Nb3579  1  0.90625000  0.59375000  0.78125000  1.0
  Nb  Nb3580  1  0.90625000  0.84375000  0.03125000  1.0
  Nb  Nb3581  1  0.90625000  0.84375000  0.28125000  1.0
  Nb  Nb3582  1  0.90625000  0.84375000  0.53125000  1.0
  Nb  Nb3583  1  0.90625000  0.84375000  0.78125000  1.0
  Nb  Nb3584  1  0.15625000  0.15625000  0.09375000  1.0
  Nb  Nb3585  1  0.15625000  0.15625000  0.34375000  1.0
  Nb  Nb3586  1  0.15625000  0.15625000  0.59375000  1.0
  Nb  Nb3587  1  0.15625000  0.15625000  0.84375000  1.0
  Nb  Nb3588  1  0.15625000  0.40625000  0.09375000  1.0
  Nb  Nb3589  1  0.15625000  0.40625000  0.34375000  1.0
  Nb  Nb3590  1  0.15625000  0.40625000  0.59375000  1.0
  Nb  Nb3591  1  0.15625000  0.40625000  0.84375000  1.0
  Nb  Nb3592  1  0.15625000  0.65625000  0.09375000  1.0
  Nb  Nb3593  1  0.15625000  0.65625000  0.34375000  1.0
  Nb  Nb3594  1  0.15625000  0.65625000  0.59375000  1.0
  Nb  Nb3595  1  0.15625000  0.65625000  0.84375000  1.0
  Nb  Nb3596  1  0.15625000  0.90625000  0.09375000  1.0
  Nb  Nb3597  1  0.15625000  0.90625000  0.34375000  1.0
  Nb  Nb3598  1  0.15625000  0.90625000  0.59375000  1.0
  Nb  Nb3599  1  0.15625000  0.90625000  0.84375000  1.0
  Nb  Nb3600  1  0.40625000  0.15625000  0.09375000  1.0
  Nb  Nb3601  1  0.40625000  0.15625000  0.34375000  1.0
  Nb  Nb3602  1  0.40625000  0.15625000  0.59375000  1.0
  Nb  Nb3603  1  0.40625000  0.15625000  0.84375000  1.0
  Nb  Nb3604  1  0.40625000  0.40625000  0.09375000  1.0
  Nb  Nb3605  1  0.40625000  0.40625000  0.34375000  1.0
  Nb  Nb3606  1  0.40625000  0.40625000  0.59375000  1.0
  Nb  Nb3607  1  0.40625000  0.40625000  0.84375000  1.0
  Nb  Nb3608  1  0.40625000  0.65625000  0.09375000  1.0
  Nb  Nb3609  1  0.40625000  0.65625000  0.34375000  1.0
  Nb  Nb3610  1  0.40625000  0.65625000  0.59375000  1.0
  Nb  Nb3611  1  0.40625000  0.65625000  0.84375000  1.0
  Nb  Nb3612  1  0.40625000  0.90625000  0.09375000  1.0
  Nb  Nb3613  1  0.40625000  0.90625000  0.34375000  1.0
  Nb  Nb3614  1  0.40625000  0.90625000  0.59375000  1.0
  Nb  Nb3615  1  0.40625000  0.90625000  0.84375000  1.0
  Nb  Nb3616  1  0.65625000  0.15625000  0.09375000  1.0
  Nb  Nb3617  1  0.65625000  0.15625000  0.34375000  1.0
  Nb  Nb3618  1  0.65625000  0.15625000  0.59375000  1.0
  Nb  Nb3619  1  0.65625000  0.15625000  0.84375000  1.0
  Nb  Nb3620  1  0.65625000  0.40625000  0.09375000  1.0
  Nb  Nb3621  1  0.65625000  0.40625000  0.34375000  1.0
  Nb  Nb3622  1  0.65625000  0.40625000  0.59375000  1.0
  Nb  Nb3623  1  0.65625000  0.40625000  0.84375000  1.0
  Nb  Nb3624  1  0.65625000  0.65625000  0.09375000  1.0
  Nb  Nb3625  1  0.65625000  0.65625000  0.34375000  1.0
  Nb  Nb3626  1  0.65625000  0.65625000  0.59375000  1.0
  Nb  Nb3627  1  0.65625000  0.65625000  0.84375000  1.0
  Nb  Nb3628  1  0.65625000  0.90625000  0.09375000  1.0
  Nb  Nb3629  1  0.65625000  0.90625000  0.34375000  1.0
  Nb  Nb3630  1  0.65625000  0.90625000  0.59375000  1.0
  Nb  Nb3631  1  0.65625000  0.90625000  0.84375000  1.0
  Nb  Nb3632  1  0.90625000  0.15625000  0.09375000  1.0
  Nb  Nb3633  1  0.90625000  0.15625000  0.34375000  1.0
  Nb  Nb3634  1  0.90625000  0.15625000  0.59375000  1.0
  Nb  Nb3635  1  0.90625000  0.15625000  0.84375000  1.0
  Nb  Nb3636  1  0.90625000  0.40625000  0.09375000  1.0
  Nb  Nb3637  1  0.90625000  0.40625000  0.34375000  1.0
  Nb  Nb3638  1  0.90625000  0.40625000  0.59375000  1.0
  Nb  Nb3639  1  0.90625000  0.40625000  0.84375000  1.0
  Nb  Nb3640  1  0.90625000  0.65625000  0.09375000  1.0
  Nb  Nb3641  1  0.90625000  0.65625000  0.34375000  1.0
  Nb  Nb3642  1  0.90625000  0.65625000  0.59375000  1.0
  Nb  Nb3643  1  0.90625000  0.65625000  0.84375000  1.0
  Nb  Nb3644  1  0.90625000  0.90625000  0.09375000  1.0
  Nb  Nb3645  1  0.90625000  0.90625000  0.34375000  1.0
  Nb  Nb3646  1  0.90625000  0.90625000  0.59375000  1.0
  Nb  Nb3647  1  0.90625000  0.90625000  0.84375000  1.0
  Nb  Nb3648  1  0.03125000  0.03125000  0.09375000  1.0
  Nb  Nb3649  1  0.03125000  0.03125000  0.34375000  1.0
  Nb  Nb3650  1  0.03125000  0.03125000  0.59375000  1.0
  Nb  Nb3651  1  0.03125000  0.03125000  0.84375000  1.0
  Nb  Nb3652  1  0.03125000  0.28125000  0.09375000  1.0
  Nb  Nb3653  1  0.03125000  0.28125000  0.34375000  1.0
  Nb  Nb3654  1  0.03125000  0.28125000  0.59375000  1.0
  Nb  Nb3655  1  0.03125000  0.28125000  0.84375000  1.0
  Nb  Nb3656  1  0.03125000  0.53125000  0.09375000  1.0
  Nb  Nb3657  1  0.03125000  0.53125000  0.34375000  1.0
  Nb  Nb3658  1  0.03125000  0.53125000  0.59375000  1.0
  Nb  Nb3659  1  0.03125000  0.53125000  0.84375000  1.0
  Nb  Nb3660  1  0.03125000  0.78125000  0.09375000  1.0
  Nb  Nb3661  1  0.03125000  0.78125000  0.34375000  1.0
  Nb  Nb3662  1  0.03125000  0.78125000  0.59375000  1.0
  Nb  Nb3663  1  0.03125000  0.78125000  0.84375000  1.0
  Nb  Nb3664  1  0.28125000  0.03125000  0.09375000  1.0
  Nb  Nb3665  1  0.28125000  0.03125000  0.34375000  1.0
  Nb  Nb3666  1  0.28125000  0.03125000  0.59375000  1.0
  Nb  Nb3667  1  0.28125000  0.03125000  0.84375000  1.0
  Nb  Nb3668  1  0.28125000  0.28125000  0.09375000  1.0
  Nb  Nb3669  1  0.28125000  0.28125000  0.34375000  1.0
  Nb  Nb3670  1  0.28125000  0.28125000  0.59375000  1.0
  Nb  Nb3671  1  0.28125000  0.28125000  0.84375000  1.0
  Nb  Nb3672  1  0.28125000  0.53125000  0.09375000  1.0
  Nb  Nb3673  1  0.28125000  0.53125000  0.34375000  1.0
  Nb  Nb3674  1  0.28125000  0.53125000  0.59375000  1.0
  Nb  Nb3675  1  0.28125000  0.53125000  0.84375000  1.0
  Nb  Nb3676  1  0.28125000  0.78125000  0.09375000  1.0
  Nb  Nb3677  1  0.28125000  0.78125000  0.34375000  1.0
  Nb  Nb3678  1  0.28125000  0.78125000  0.59375000  1.0
  Nb  Nb3679  1  0.28125000  0.78125000  0.84375000  1.0
  Nb  Nb3680  1  0.53125000  0.03125000  0.09375000  1.0
  Nb  Nb3681  1  0.53125000  0.03125000  0.34375000  1.0
  Nb  Nb3682  1  0.53125000  0.03125000  0.59375000  1.0
  Nb  Nb3683  1  0.53125000  0.03125000  0.84375000  1.0
  Nb  Nb3684  1  0.53125000  0.28125000  0.09375000  1.0
  Nb  Nb3685  1  0.53125000  0.28125000  0.34375000  1.0
  Nb  Nb3686  1  0.53125000  0.28125000  0.59375000  1.0
  Nb  Nb3687  1  0.53125000  0.28125000  0.84375000  1.0
  Nb  Nb3688  1  0.53125000  0.53125000  0.09375000  1.0
  Nb  Nb3689  1  0.53125000  0.53125000  0.34375000  1.0
  Nb  Nb3690  1  0.53125000  0.53125000  0.59375000  1.0
  Nb  Nb3691  1  0.53125000  0.53125000  0.84375000  1.0
  Nb  Nb3692  1  0.53125000  0.78125000  0.09375000  1.0
  Nb  Nb3693  1  0.53125000  0.78125000  0.34375000  1.0
  Nb  Nb3694  1  0.53125000  0.78125000  0.59375000  1.0
  Nb  Nb3695  1  0.53125000  0.78125000  0.84375000  1.0
  Nb  Nb3696  1  0.78125000  0.03125000  0.09375000  1.0
  Nb  Nb3697  1  0.78125000  0.03125000  0.34375000  1.0
  Nb  Nb3698  1  0.78125000  0.03125000  0.59375000  1.0
  Nb  Nb3699  1  0.78125000  0.03125000  0.84375000  1.0
  Nb  Nb3700  1  0.78125000  0.28125000  0.09375000  1.0
  Nb  Nb3701  1  0.78125000  0.28125000  0.34375000  1.0
  Nb  Nb3702  1  0.78125000  0.28125000  0.59375000  1.0
  Nb  Nb3703  1  0.78125000  0.28125000  0.84375000  1.0
  Nb  Nb3704  1  0.78125000  0.53125000  0.09375000  1.0
  Nb  Nb3705  1  0.78125000  0.53125000  0.34375000  1.0
  Nb  Nb3706  1  0.78125000  0.53125000  0.59375000  1.0
  Nb  Nb3707  1  0.78125000  0.53125000  0.84375000  1.0
  Nb  Nb3708  1  0.78125000  0.78125000  0.09375000  1.0
  Nb  Nb3709  1  0.78125000  0.78125000  0.34375000  1.0
  Nb  Nb3710  1  0.78125000  0.78125000  0.59375000  1.0
  Nb  Nb3711  1  0.78125000  0.78125000  0.84375000  1.0
  Nb  Nb3712  1  0.03125000  0.15625000  0.21875000  1.0
  Nb  Nb3713  1  0.03125000  0.15625000  0.46875000  1.0
  Nb  Nb3714  1  0.03125000  0.15625000  0.71875000  1.0
  Nb  Nb3715  1  0.03125000  0.15625000  0.96875000  1.0
  Nb  Nb3716  1  0.03125000  0.40625000  0.21875000  1.0
  Nb  Nb3717  1  0.03125000  0.40625000  0.46875000  1.0
  Nb  Nb3718  1  0.03125000  0.40625000  0.71875000  1.0
  Nb  Nb3719  1  0.03125000  0.40625000  0.96875000  1.0
  Nb  Nb3720  1  0.03125000  0.65625000  0.21875000  1.0
  Nb  Nb3721  1  0.03125000  0.65625000  0.46875000  1.0
  Nb  Nb3722  1  0.03125000  0.65625000  0.71875000  1.0
  Nb  Nb3723  1  0.03125000  0.65625000  0.96875000  1.0
  Nb  Nb3724  1  0.03125000  0.90625000  0.21875000  1.0
  Nb  Nb3725  1  0.03125000  0.90625000  0.46875000  1.0
  Nb  Nb3726  1  0.03125000  0.90625000  0.71875000  1.0
  Nb  Nb3727  1  0.03125000  0.90625000  0.96875000  1.0
  Nb  Nb3728  1  0.28125000  0.15625000  0.21875000  1.0
  Nb  Nb3729  1  0.28125000  0.15625000  0.46875000  1.0
  Nb  Nb3730  1  0.28125000  0.15625000  0.71875000  1.0
  Nb  Nb3731  1  0.28125000  0.15625000  0.96875000  1.0
  Nb  Nb3732  1  0.28125000  0.40625000  0.21875000  1.0
  Nb  Nb3733  1  0.28125000  0.40625000  0.46875000  1.0
  Nb  Nb3734  1  0.28125000  0.40625000  0.71875000  1.0
  Nb  Nb3735  1  0.28125000  0.40625000  0.96875000  1.0
  Nb  Nb3736  1  0.28125000  0.65625000  0.21875000  1.0
  Nb  Nb3737  1  0.28125000  0.65625000  0.46875000  1.0
  Nb  Nb3738  1  0.28125000  0.65625000  0.71875000  1.0
  Nb  Nb3739  1  0.28125000  0.65625000  0.96875000  1.0
  Nb  Nb3740  1  0.28125000  0.90625000  0.21875000  1.0
  Nb  Nb3741  1  0.28125000  0.90625000  0.46875000  1.0
  Nb  Nb3742  1  0.28125000  0.90625000  0.71875000  1.0
  Nb  Nb3743  1  0.28125000  0.90625000  0.96875000  1.0
  Nb  Nb3744  1  0.53125000  0.15625000  0.21875000  1.0
  Nb  Nb3745  1  0.53125000  0.15625000  0.46875000  1.0
  Nb  Nb3746  1  0.53125000  0.15625000  0.71875000  1.0
  Nb  Nb3747  1  0.53125000  0.15625000  0.96875000  1.0
  Nb  Nb3748  1  0.53125000  0.40625000  0.21875000  1.0
  Nb  Nb3749  1  0.53125000  0.40625000  0.46875000  1.0
  Nb  Nb3750  1  0.53125000  0.40625000  0.71875000  1.0
  Nb  Nb3751  1  0.53125000  0.40625000  0.96875000  1.0
  Nb  Nb3752  1  0.53125000  0.65625000  0.21875000  1.0
  Nb  Nb3753  1  0.53125000  0.65625000  0.46875000  1.0
  Nb  Nb3754  1  0.53125000  0.65625000  0.71875000  1.0
  Nb  Nb3755  1  0.53125000  0.65625000  0.96875000  1.0
  Nb  Nb3756  1  0.53125000  0.90625000  0.21875000  1.0
  Nb  Nb3757  1  0.53125000  0.90625000  0.46875000  1.0
  Nb  Nb3758  1  0.53125000  0.90625000  0.71875000  1.0
  Nb  Nb3759  1  0.53125000  0.90625000  0.96875000  1.0
  Nb  Nb3760  1  0.78125000  0.15625000  0.21875000  1.0
  Nb  Nb3761  1  0.78125000  0.15625000  0.46875000  1.0
  Nb  Nb3762  1  0.78125000  0.15625000  0.71875000  1.0
  Nb  Nb3763  1  0.78125000  0.15625000  0.96875000  1.0
  Nb  Nb3764  1  0.78125000  0.40625000  0.21875000  1.0
  Nb  Nb3765  1  0.78125000  0.40625000  0.46875000  1.0
  Nb  Nb3766  1  0.78125000  0.40625000  0.71875000  1.0
  Nb  Nb3767  1  0.78125000  0.40625000  0.96875000  1.0
  Nb  Nb3768  1  0.78125000  0.65625000  0.21875000  1.0
  Nb  Nb3769  1  0.78125000  0.65625000  0.46875000  1.0
  Nb  Nb3770  1  0.78125000  0.65625000  0.71875000  1.0
  Nb  Nb3771  1  0.78125000  0.65625000  0.96875000  1.0
  Nb  Nb3772  1  0.78125000  0.90625000  0.21875000  1.0
  Nb  Nb3773  1  0.78125000  0.90625000  0.46875000  1.0
  Nb  Nb3774  1  0.78125000  0.90625000  0.71875000  1.0
  Nb  Nb3775  1  0.78125000  0.90625000  0.96875000  1.0
  Nb  Nb3776  1  0.15625000  0.03125000  0.21875000  1.0
  Nb  Nb3777  1  0.15625000  0.03125000  0.46875000  1.0
  Nb  Nb3778  1  0.15625000  0.03125000  0.71875000  1.0
  Nb  Nb3779  1  0.15625000  0.03125000  0.96875000  1.0
  Nb  Nb3780  1  0.15625000  0.28125000  0.21875000  1.0
  Nb  Nb3781  1  0.15625000  0.28125000  0.46875000  1.0
  Nb  Nb3782  1  0.15625000  0.28125000  0.71875000  1.0
  Nb  Nb3783  1  0.15625000  0.28125000  0.96875000  1.0
  Nb  Nb3784  1  0.15625000  0.53125000  0.21875000  1.0
  Nb  Nb3785  1  0.15625000  0.53125000  0.46875000  1.0
  Nb  Nb3786  1  0.15625000  0.53125000  0.71875000  1.0
  Nb  Nb3787  1  0.15625000  0.53125000  0.96875000  1.0
  Nb  Nb3788  1  0.15625000  0.78125000  0.21875000  1.0
  Nb  Nb3789  1  0.15625000  0.78125000  0.46875000  1.0
  Nb  Nb3790  1  0.15625000  0.78125000  0.71875000  1.0
  Nb  Nb3791  1  0.15625000  0.78125000  0.96875000  1.0
  Nb  Nb3792  1  0.40625000  0.03125000  0.21875000  1.0
  Nb  Nb3793  1  0.40625000  0.03125000  0.46875000  1.0
  Nb  Nb3794  1  0.40625000  0.03125000  0.71875000  1.0
  Nb  Nb3795  1  0.40625000  0.03125000  0.96875000  1.0
  Nb  Nb3796  1  0.40625000  0.28125000  0.21875000  1.0
  Nb  Nb3797  1  0.40625000  0.28125000  0.46875000  1.0
  Nb  Nb3798  1  0.40625000  0.28125000  0.71875000  1.0
  Nb  Nb3799  1  0.40625000  0.28125000  0.96875000  1.0
  Nb  Nb3800  1  0.40625000  0.53125000  0.21875000  1.0
  Nb  Nb3801  1  0.40625000  0.53125000  0.46875000  1.0
  Nb  Nb3802  1  0.40625000  0.53125000  0.71875000  1.0
  Nb  Nb3803  1  0.40625000  0.53125000  0.96875000  1.0
  Nb  Nb3804  1  0.40625000  0.78125000  0.21875000  1.0
  Nb  Nb3805  1  0.40625000  0.78125000  0.46875000  1.0
  Nb  Nb3806  1  0.40625000  0.78125000  0.71875000  1.0
  Nb  Nb3807  1  0.40625000  0.78125000  0.96875000  1.0
  Nb  Nb3808  1  0.65625000  0.03125000  0.21875000  1.0
  Nb  Nb3809  1  0.65625000  0.03125000  0.46875000  1.0
  Nb  Nb3810  1  0.65625000  0.03125000  0.71875000  1.0
  Nb  Nb3811  1  0.65625000  0.03125000  0.96875000  1.0
  Nb  Nb3812  1  0.65625000  0.28125000  0.21875000  1.0
  Nb  Nb3813  1  0.65625000  0.28125000  0.46875000  1.0
  Nb  Nb3814  1  0.65625000  0.28125000  0.71875000  1.0
  Nb  Nb3815  1  0.65625000  0.28125000  0.96875000  1.0
  Nb  Nb3816  1  0.65625000  0.53125000  0.21875000  1.0
  Nb  Nb3817  1  0.65625000  0.53125000  0.46875000  1.0
  Nb  Nb3818  1  0.65625000  0.53125000  0.71875000  1.0
  Nb  Nb3819  1  0.65625000  0.53125000  0.96875000  1.0
  Nb  Nb3820  1  0.65625000  0.78125000  0.21875000  1.0
  Nb  Nb3821  1  0.65625000  0.78125000  0.46875000  1.0
  Nb  Nb3822  1  0.65625000  0.78125000  0.71875000  1.0
  Nb  Nb3823  1  0.65625000  0.78125000  0.96875000  1.0
  Nb  Nb3824  1  0.90625000  0.03125000  0.21875000  1.0
  Nb  Nb3825  1  0.90625000  0.03125000  0.46875000  1.0
  Nb  Nb3826  1  0.90625000  0.03125000  0.71875000  1.0
  Nb  Nb3827  1  0.90625000  0.03125000  0.96875000  1.0
  Nb  Nb3828  1  0.90625000  0.28125000  0.21875000  1.0
  Nb  Nb3829  1  0.90625000  0.28125000  0.46875000  1.0
  Nb  Nb3830  1  0.90625000  0.28125000  0.71875000  1.0
  Nb  Nb3831  1  0.90625000  0.28125000  0.96875000  1.0
  Nb  Nb3832  1  0.90625000  0.53125000  0.21875000  1.0
  Nb  Nb3833  1  0.90625000  0.53125000  0.46875000  1.0
  Nb  Nb3834  1  0.90625000  0.53125000  0.71875000  1.0
  Nb  Nb3835  1  0.90625000  0.53125000  0.96875000  1.0
  Nb  Nb3836  1  0.90625000  0.78125000  0.21875000  1.0
  Nb  Nb3837  1  0.90625000  0.78125000  0.46875000  1.0
  Nb  Nb3838  1  0.90625000  0.78125000  0.71875000  1.0
  Nb  Nb3839  1  0.90625000  0.78125000  0.96875000  1.0
  Nb  Nb3840  1  0.15625000  0.15625000  0.21875000  1.0
  Nb  Nb3841  1  0.15625000  0.15625000  0.46875000  1.0
  Nb  Nb3842  1  0.15625000  0.15625000  0.71875000  1.0
  Nb  Nb3843  1  0.15625000  0.15625000  0.96875000  1.0
  Nb  Nb3844  1  0.15625000  0.40625000  0.21875000  1.0
  Nb  Nb3845  1  0.15625000  0.40625000  0.46875000  1.0
  Nb  Nb3846  1  0.15625000  0.40625000  0.71875000  1.0
  Nb  Nb3847  1  0.15625000  0.40625000  0.96875000  1.0
  Nb  Nb3848  1  0.15625000  0.65625000  0.21875000  1.0
  Nb  Nb3849  1  0.15625000  0.65625000  0.46875000  1.0
  Nb  Nb3850  1  0.15625000  0.65625000  0.71875000  1.0
  Nb  Nb3851  1  0.15625000  0.65625000  0.96875000  1.0
  Nb  Nb3852  1  0.15625000  0.90625000  0.21875000  1.0
  Nb  Nb3853  1  0.15625000  0.90625000  0.46875000  1.0
  Nb  Nb3854  1  0.15625000  0.90625000  0.71875000  1.0
  Nb  Nb3855  1  0.15625000  0.90625000  0.96875000  1.0
  Nb  Nb3856  1  0.40625000  0.15625000  0.21875000  1.0
  Nb  Nb3857  1  0.40625000  0.15625000  0.46875000  1.0
  Nb  Nb3858  1  0.40625000  0.15625000  0.71875000  1.0
  Nb  Nb3859  1  0.40625000  0.15625000  0.96875000  1.0
  Nb  Nb3860  1  0.40625000  0.40625000  0.21875000  1.0
  Nb  Nb3861  1  0.40625000  0.40625000  0.46875000  1.0
  Nb  Nb3862  1  0.40625000  0.40625000  0.71875000  1.0
  Nb  Nb3863  1  0.40625000  0.40625000  0.96875000  1.0
  Nb  Nb3864  1  0.40625000  0.65625000  0.21875000  1.0
  Nb  Nb3865  1  0.40625000  0.65625000  0.46875000  1.0
  Nb  Nb3866  1  0.40625000  0.65625000  0.71875000  1.0
  Nb  Nb3867  1  0.40625000  0.65625000  0.96875000  1.0
  Nb  Nb3868  1  0.40625000  0.90625000  0.21875000  1.0
  Nb  Nb3869  1  0.40625000  0.90625000  0.46875000  1.0
  Nb  Nb3870  1  0.40625000  0.90625000  0.71875000  1.0
  Nb  Nb3871  1  0.40625000  0.90625000  0.96875000  1.0
  Nb  Nb3872  1  0.65625000  0.15625000  0.21875000  1.0
  Nb  Nb3873  1  0.65625000  0.15625000  0.46875000  1.0
  Nb  Nb3874  1  0.65625000  0.15625000  0.71875000  1.0
  Nb  Nb3875  1  0.65625000  0.15625000  0.96875000  1.0
  Nb  Nb3876  1  0.65625000  0.40625000  0.21875000  1.0
  Nb  Nb3877  1  0.65625000  0.40625000  0.46875000  1.0
  Nb  Nb3878  1  0.65625000  0.40625000  0.71875000  1.0
  Nb  Nb3879  1  0.65625000  0.40625000  0.96875000  1.0
  Nb  Nb3880  1  0.65625000  0.65625000  0.21875000  1.0
  Nb  Nb3881  1  0.65625000  0.65625000  0.46875000  1.0
  Nb  Nb3882  1  0.65625000  0.65625000  0.71875000  1.0
  Nb  Nb3883  1  0.65625000  0.65625000  0.96875000  1.0
  Nb  Nb3884  1  0.65625000  0.90625000  0.21875000  1.0
  Nb  Nb3885  1  0.65625000  0.90625000  0.46875000  1.0
  Nb  Nb3886  1  0.65625000  0.90625000  0.71875000  1.0
  Nb  Nb3887  1  0.65625000  0.90625000  0.96875000  1.0
  Nb  Nb3888  1  0.90625000  0.15625000  0.21875000  1.0
  Nb  Nb3889  1  0.90625000  0.15625000  0.46875000  1.0
  Nb  Nb3890  1  0.90625000  0.15625000  0.71875000  1.0
  Nb  Nb3891  1  0.90625000  0.15625000  0.96875000  1.0
  Nb  Nb3892  1  0.90625000  0.40625000  0.21875000  1.0
  Nb  Nb3893  1  0.90625000  0.40625000  0.46875000  1.0
  Nb  Nb3894  1  0.90625000  0.40625000  0.71875000  1.0
  Nb  Nb3895  1  0.90625000  0.40625000  0.96875000  1.0
  Nb  Nb3896  1  0.90625000  0.65625000  0.21875000  1.0
  Nb  Nb3897  1  0.90625000  0.65625000  0.46875000  1.0
  Nb  Nb3898  1  0.90625000  0.65625000  0.71875000  1.0
  Nb  Nb3899  1  0.90625000  0.65625000  0.96875000  1.0
  Nb  Nb3900  1  0.90625000  0.90625000  0.21875000  1.0
  Nb  Nb3901  1  0.90625000  0.90625000  0.46875000  1.0
  Nb  Nb3902  1  0.90625000  0.90625000  0.71875000  1.0
  Nb  Nb3903  1  0.90625000  0.90625000  0.96875000  1.0
  Nb  Nb3904  1  0.03125000  0.03125000  0.21875000  1.0
  Nb  Nb3905  1  0.03125000  0.03125000  0.46875000  1.0
  Nb  Nb3906  1  0.03125000  0.03125000  0.71875000  1.0
  Nb  Nb3907  1  0.03125000  0.03125000  0.96875000  1.0
  Nb  Nb3908  1  0.03125000  0.28125000  0.21875000  1.0
  Nb  Nb3909  1  0.03125000  0.28125000  0.46875000  1.0
  Nb  Nb3910  1  0.03125000  0.28125000  0.71875000  1.0
  Nb  Nb3911  1  0.03125000  0.28125000  0.96875000  1.0
  Nb  Nb3912  1  0.03125000  0.53125000  0.21875000  1.0
  Nb  Nb3913  1  0.03125000  0.53125000  0.46875000  1.0
  Nb  Nb3914  1  0.03125000  0.53125000  0.71875000  1.0
  Nb  Nb3915  1  0.03125000  0.53125000  0.96875000  1.0
  Nb  Nb3916  1  0.03125000  0.78125000  0.21875000  1.0
  Nb  Nb3917  1  0.03125000  0.78125000  0.46875000  1.0
  Nb  Nb3918  1  0.03125000  0.78125000  0.71875000  1.0
  Nb  Nb3919  1  0.03125000  0.78125000  0.96875000  1.0
  Nb  Nb3920  1  0.28125000  0.03125000  0.21875000  1.0
  Nb  Nb3921  1  0.28125000  0.03125000  0.46875000  1.0
  Nb  Nb3922  1  0.28125000  0.03125000  0.71875000  1.0
  Nb  Nb3923  1  0.28125000  0.03125000  0.96875000  1.0
  Nb  Nb3924  1  0.28125000  0.28125000  0.21875000  1.0
  Nb  Nb3925  1  0.28125000  0.28125000  0.46875000  1.0
  Nb  Nb3926  1  0.28125000  0.28125000  0.71875000  1.0
  Nb  Nb3927  1  0.28125000  0.28125000  0.96875000  1.0
  Nb  Nb3928  1  0.28125000  0.53125000  0.21875000  1.0
  Nb  Nb3929  1  0.28125000  0.53125000  0.46875000  1.0
  Nb  Nb3930  1  0.28125000  0.53125000  0.71875000  1.0
  Nb  Nb3931  1  0.28125000  0.53125000  0.96875000  1.0
  Nb  Nb3932  1  0.28125000  0.78125000  0.21875000  1.0
  Nb  Nb3933  1  0.28125000  0.78125000  0.46875000  1.0
  Nb  Nb3934  1  0.28125000  0.78125000  0.71875000  1.0
  Nb  Nb3935  1  0.28125000  0.78125000  0.96875000  1.0
  Nb  Nb3936  1  0.53125000  0.03125000  0.21875000  1.0
  Nb  Nb3937  1  0.53125000  0.03125000  0.46875000  1.0
  Nb  Nb3938  1  0.53125000  0.03125000  0.71875000  1.0
  Nb  Nb3939  1  0.53125000  0.03125000  0.96875000  1.0
  Nb  Nb3940  1  0.53125000  0.28125000  0.21875000  1.0
  Nb  Nb3941  1  0.53125000  0.28125000  0.46875000  1.0
  Nb  Nb3942  1  0.53125000  0.28125000  0.71875000  1.0
  Nb  Nb3943  1  0.53125000  0.28125000  0.96875000  1.0
  Nb  Nb3944  1  0.53125000  0.53125000  0.21875000  1.0
  Nb  Nb3945  1  0.53125000  0.53125000  0.46875000  1.0
  Nb  Nb3946  1  0.53125000  0.53125000  0.71875000  1.0
  Nb  Nb3947  1  0.53125000  0.53125000  0.96875000  1.0
  Nb  Nb3948  1  0.53125000  0.78125000  0.21875000  1.0
  Nb  Nb3949  1  0.53125000  0.78125000  0.46875000  1.0
  Nb  Nb3950  1  0.53125000  0.78125000  0.71875000  1.0
  Nb  Nb3951  1  0.53125000  0.78125000  0.96875000  1.0
  Nb  Nb3952  1  0.78125000  0.03125000  0.21875000  1.0
  Nb  Nb3953  1  0.78125000  0.03125000  0.46875000  1.0
  Nb  Nb3954  1  0.78125000  0.03125000  0.71875000  1.0
  Nb  Nb3955  1  0.78125000  0.03125000  0.96875000  1.0
  Nb  Nb3956  1  0.78125000  0.28125000  0.21875000  1.0
  Nb  Nb3957  1  0.78125000  0.28125000  0.46875000  1.0
  Nb  Nb3958  1  0.78125000  0.28125000  0.71875000  1.0
  Nb  Nb3959  1  0.78125000  0.28125000  0.96875000  1.0
  Nb  Nb3960  1  0.78125000  0.53125000  0.21875000  1.0
  Nb  Nb3961  1  0.78125000  0.53125000  0.46875000  1.0
  Nb  Nb3962  1  0.78125000  0.53125000  0.71875000  1.0
  Nb  Nb3963  1  0.78125000  0.53125000  0.96875000  1.0
  Nb  Nb3964  1  0.78125000  0.78125000  0.21875000  1.0
  Nb  Nb3965  1  0.78125000  0.78125000  0.46875000  1.0
  Nb  Nb3966  1  0.78125000  0.78125000  0.71875000  1.0
  Nb  Nb3967  1  0.78125000  0.78125000  0.96875000  1.0
  Nb  Nb3968  1  0.03125000  0.15625000  0.09375000  1.0
  Nb  Nb3969  1  0.03125000  0.15625000  0.34375000  1.0
  Nb  Nb3970  1  0.03125000  0.15625000  0.59375000  1.0
  Nb  Nb3971  1  0.03125000  0.15625000  0.84375000  1.0
  Nb  Nb3972  1  0.03125000  0.40625000  0.09375000  1.0
  Nb  Nb3973  1  0.03125000  0.40625000  0.34375000  1.0
  Nb  Nb3974  1  0.03125000  0.40625000  0.59375000  1.0
  Nb  Nb3975  1  0.03125000  0.40625000  0.84375000  1.0
  Nb  Nb3976  1  0.03125000  0.65625000  0.09375000  1.0
  Nb  Nb3977  1  0.03125000  0.65625000  0.34375000  1.0
  Nb  Nb3978  1  0.03125000  0.65625000  0.59375000  1.0
  Nb  Nb3979  1  0.03125000  0.65625000  0.84375000  1.0
  Nb  Nb3980  1  0.03125000  0.90625000  0.09375000  1.0
  Nb  Nb3981  1  0.03125000  0.90625000  0.34375000  1.0
  Nb  Nb3982  1  0.03125000  0.90625000  0.59375000  1.0
  Nb  Nb3983  1  0.03125000  0.90625000  0.84375000  1.0
  Nb  Nb3984  1  0.28125000  0.15625000  0.09375000  1.0
  Nb  Nb3985  1  0.28125000  0.15625000  0.34375000  1.0
  Nb  Nb3986  1  0.28125000  0.15625000  0.59375000  1.0
  Nb  Nb3987  1  0.28125000  0.15625000  0.84375000  1.0
  Nb  Nb3988  1  0.28125000  0.40625000  0.09375000  1.0
  Nb  Nb3989  1  0.28125000  0.40625000  0.34375000  1.0
  Nb  Nb3990  1  0.28125000  0.40625000  0.59375000  1.0
  Nb  Nb3991  1  0.28125000  0.40625000  0.84375000  1.0
  Nb  Nb3992  1  0.28125000  0.65625000  0.09375000  1.0
  Nb  Nb3993  1  0.28125000  0.65625000  0.34375000  1.0
  Nb  Nb3994  1  0.28125000  0.65625000  0.59375000  1.0
  Nb  Nb3995  1  0.28125000  0.65625000  0.84375000  1.0
  Nb  Nb3996  1  0.28125000  0.90625000  0.09375000  1.0
  Nb  Nb3997  1  0.28125000  0.90625000  0.34375000  1.0
  Nb  Nb3998  1  0.28125000  0.90625000  0.59375000  1.0
  Nb  Nb3999  1  0.28125000  0.90625000  0.84375000  1.0
  Nb  Nb4000  1  0.53125000  0.15625000  0.09375000  1.0
  Nb  Nb4001  1  0.53125000  0.15625000  0.34375000  1.0
  Nb  Nb4002  1  0.53125000  0.15625000  0.59375000  1.0
  Nb  Nb4003  1  0.53125000  0.15625000  0.84375000  1.0
  Nb  Nb4004  1  0.53125000  0.40625000  0.09375000  1.0
  Nb  Nb4005  1  0.53125000  0.40625000  0.34375000  1.0
  Nb  Nb4006  1  0.53125000  0.40625000  0.59375000  1.0
  Nb  Nb4007  1  0.53125000  0.40625000  0.84375000  1.0
  Nb  Nb4008  1  0.53125000  0.65625000  0.09375000  1.0
  Nb  Nb4009  1  0.53125000  0.65625000  0.34375000  1.0
  Nb  Nb4010  1  0.53125000  0.65625000  0.59375000  1.0
  Nb  Nb4011  1  0.53125000  0.65625000  0.84375000  1.0
  Nb  Nb4012  1  0.53125000  0.90625000  0.09375000  1.0
  Nb  Nb4013  1  0.53125000  0.90625000  0.34375000  1.0
  Nb  Nb4014  1  0.53125000  0.90625000  0.59375000  1.0
  Nb  Nb4015  1  0.53125000  0.90625000  0.84375000  1.0
  Nb  Nb4016  1  0.78125000  0.15625000  0.09375000  1.0
  Nb  Nb4017  1  0.78125000  0.15625000  0.34375000  1.0
  Nb  Nb4018  1  0.78125000  0.15625000  0.59375000  1.0
  Nb  Nb4019  1  0.78125000  0.15625000  0.84375000  1.0
  Nb  Nb4020  1  0.78125000  0.40625000  0.09375000  1.0
  Nb  Nb4021  1  0.78125000  0.40625000  0.34375000  1.0
  Nb  Nb4022  1  0.78125000  0.40625000  0.59375000  1.0
  Nb  Nb4023  1  0.78125000  0.40625000  0.84375000  1.0
  Nb  Nb4024  1  0.78125000  0.65625000  0.09375000  1.0
  Nb  Nb4025  1  0.78125000  0.65625000  0.34375000  1.0
  Nb  Nb4026  1  0.78125000  0.65625000  0.59375000  1.0
  Nb  Nb4027  1  0.78125000  0.65625000  0.84375000  1.0
  Nb  Nb4028  1  0.78125000  0.90625000  0.09375000  1.0
  Nb  Nb4029  1  0.78125000  0.90625000  0.34375000  1.0
  Nb  Nb4030  1  0.78125000  0.90625000  0.59375000  1.0
  Nb  Nb4031  1  0.78125000  0.90625000  0.84375000  1.0
  Nb  Nb4032  1  0.15625000  0.03125000  0.09375000  1.0
  Nb  Nb4033  1  0.15625000  0.03125000  0.34375000  1.0
  Nb  Nb4034  1  0.15625000  0.03125000  0.59375000  1.0
  Nb  Nb4035  1  0.15625000  0.03125000  0.84375000  1.0
  Nb  Nb4036  1  0.15625000  0.28125000  0.09375000  1.0
  Nb  Nb4037  1  0.15625000  0.28125000  0.34375000  1.0
  Nb  Nb4038  1  0.15625000  0.28125000  0.59375000  1.0
  Nb  Nb4039  1  0.15625000  0.28125000  0.84375000  1.0
  Nb  Nb4040  1  0.15625000  0.53125000  0.09375000  1.0
  Nb  Nb4041  1  0.15625000  0.53125000  0.34375000  1.0
  Nb  Nb4042  1  0.15625000  0.53125000  0.59375000  1.0
  Nb  Nb4043  1  0.15625000  0.53125000  0.84375000  1.0
  Nb  Nb4044  1  0.15625000  0.78125000  0.09375000  1.0
  Nb  Nb4045  1  0.15625000  0.78125000  0.34375000  1.0
  Nb  Nb4046  1  0.15625000  0.78125000  0.59375000  1.0
  Nb  Nb4047  1  0.15625000  0.78125000  0.84375000  1.0
  Nb  Nb4048  1  0.40625000  0.03125000  0.09375000  1.0
  Nb  Nb4049  1  0.40625000  0.03125000  0.34375000  1.0
  Nb  Nb4050  1  0.40625000  0.03125000  0.59375000  1.0
  Nb  Nb4051  1  0.40625000  0.03125000  0.84375000  1.0
  Nb  Nb4052  1  0.40625000  0.28125000  0.09375000  1.0
  Nb  Nb4053  1  0.40625000  0.28125000  0.34375000  1.0
  Nb  Nb4054  1  0.40625000  0.28125000  0.59375000  1.0
  Nb  Nb4055  1  0.40625000  0.28125000  0.84375000  1.0
  Nb  Nb4056  1  0.40625000  0.53125000  0.09375000  1.0
  Nb  Nb4057  1  0.40625000  0.53125000  0.34375000  1.0
  Nb  Nb4058  1  0.40625000  0.53125000  0.59375000  1.0
  Nb  Nb4059  1  0.40625000  0.53125000  0.84375000  1.0
  Nb  Nb4060  1  0.40625000  0.78125000  0.09375000  1.0
  Nb  Nb4061  1  0.40625000  0.78125000  0.34375000  1.0
  Nb  Nb4062  1  0.40625000  0.78125000  0.59375000  1.0
  Nb  Nb4063  1  0.40625000  0.78125000  0.84375000  1.0
  Nb  Nb4064  1  0.65625000  0.03125000  0.09375000  1.0
  Nb  Nb4065  1  0.65625000  0.03125000  0.34375000  1.0
  Nb  Nb4066  1  0.65625000  0.03125000  0.59375000  1.0
  Nb  Nb4067  1  0.65625000  0.03125000  0.84375000  1.0
  Nb  Nb4068  1  0.65625000  0.28125000  0.09375000  1.0
  Nb  Nb4069  1  0.65625000  0.28125000  0.34375000  1.0
  Nb  Nb4070  1  0.65625000  0.28125000  0.59375000  1.0
  Nb  Nb4071  1  0.65625000  0.28125000  0.84375000  1.0
  Nb  Nb4072  1  0.65625000  0.53125000  0.09375000  1.0
  Nb  Nb4073  1  0.65625000  0.53125000  0.34375000  1.0
  Nb  Nb4074  1  0.65625000  0.53125000  0.59375000  1.0
  Nb  Nb4075  1  0.65625000  0.53125000  0.84375000  1.0
  Nb  Nb4076  1  0.65625000  0.78125000  0.09375000  1.0
  Nb  Nb4077  1  0.65625000  0.78125000  0.34375000  1.0
  Nb  Nb4078  1  0.65625000  0.78125000  0.59375000  1.0
  Nb  Nb4079  1  0.65625000  0.78125000  0.84375000  1.0
  Nb  Nb4080  1  0.90625000  0.03125000  0.09375000  1.0
  Nb  Nb4081  1  0.90625000  0.03125000  0.34375000  1.0
  Nb  Nb4082  1  0.90625000  0.03125000  0.59375000  1.0
  Nb  Nb4083  1  0.90625000  0.03125000  0.84375000  1.0
  Nb  Nb4084  1  0.90625000  0.28125000  0.09375000  1.0
  Nb  Nb4085  1  0.90625000  0.28125000  0.34375000  1.0
  Nb  Nb4086  1  0.90625000  0.28125000  0.59375000  1.0
  Nb  Nb4087  1  0.90625000  0.28125000  0.84375000  1.0
  Nb  Nb4088  1  0.90625000  0.53125000  0.09375000  1.0
  Nb  Nb4089  1  0.90625000  0.53125000  0.34375000  1.0
  Nb  Nb4090  1  0.90625000  0.53125000  0.59375000  1.0
  Nb  Nb4091  1  0.90625000  0.53125000  0.84375000  1.0
  Nb  Nb4092  1  0.90625000  0.78125000  0.09375000  1.0
  Nb  Nb4093  1  0.90625000  0.78125000  0.34375000  1.0
  Nb  Nb4094  1  0.90625000  0.78125000  0.59375000  1.0
  Nb  Nb4095  1  0.90625000  0.78125000  0.84375000  1.0
  Nb  Nb4096  1  0.15625000  0.09375000  0.15625000  1.0
  Nb  Nb4097  1  0.15625000  0.09375000  0.40625000  1.0
  Nb  Nb4098  1  0.15625000  0.09375000  0.65625000  1.0
  Nb  Nb4099  1  0.15625000  0.09375000  0.90625000  1.0
  Nb  Nb4100  1  0.15625000  0.34375000  0.15625000  1.0
  Nb  Nb4101  1  0.15625000  0.34375000  0.40625000  1.0
  Nb  Nb4102  1  0.15625000  0.34375000  0.65625000  1.0
  Nb  Nb4103  1  0.15625000  0.34375000  0.90625000  1.0
  Nb  Nb4104  1  0.15625000  0.59375000  0.15625000  1.0
  Nb  Nb4105  1  0.15625000  0.59375000  0.40625000  1.0
  Nb  Nb4106  1  0.15625000  0.59375000  0.65625000  1.0
  Nb  Nb4107  1  0.15625000  0.59375000  0.90625000  1.0
  Nb  Nb4108  1  0.15625000  0.84375000  0.15625000  1.0
  Nb  Nb4109  1  0.15625000  0.84375000  0.40625000  1.0
  Nb  Nb4110  1  0.15625000  0.84375000  0.65625000  1.0
  Nb  Nb4111  1  0.15625000  0.84375000  0.90625000  1.0
  Nb  Nb4112  1  0.40625000  0.09375000  0.15625000  1.0
  Nb  Nb4113  1  0.40625000  0.09375000  0.40625000  1.0
  Nb  Nb4114  1  0.40625000  0.09375000  0.65625000  1.0
  Nb  Nb4115  1  0.40625000  0.09375000  0.90625000  1.0
  Nb  Nb4116  1  0.40625000  0.34375000  0.15625000  1.0
  Nb  Nb4117  1  0.40625000  0.34375000  0.40625000  1.0
  Nb  Nb4118  1  0.40625000  0.34375000  0.65625000  1.0
  Nb  Nb4119  1  0.40625000  0.34375000  0.90625000  1.0
  Nb  Nb4120  1  0.40625000  0.59375000  0.15625000  1.0
  Nb  Nb4121  1  0.40625000  0.59375000  0.40625000  1.0
  Nb  Nb4122  1  0.40625000  0.59375000  0.65625000  1.0
  Nb  Nb4123  1  0.40625000  0.59375000  0.90625000  1.0
  Nb  Nb4124  1  0.40625000  0.84375000  0.15625000  1.0
  Nb  Nb4125  1  0.40625000  0.84375000  0.40625000  1.0
  Nb  Nb4126  1  0.40625000  0.84375000  0.65625000  1.0
  Nb  Nb4127  1  0.40625000  0.84375000  0.90625000  1.0
  Nb  Nb4128  1  0.65625000  0.09375000  0.15625000  1.0
  Nb  Nb4129  1  0.65625000  0.09375000  0.40625000  1.0
  Nb  Nb4130  1  0.65625000  0.09375000  0.65625000  1.0
  Nb  Nb4131  1  0.65625000  0.09375000  0.90625000  1.0
  Nb  Nb4132  1  0.65625000  0.34375000  0.15625000  1.0
  Nb  Nb4133  1  0.65625000  0.34375000  0.40625000  1.0
  Nb  Nb4134  1  0.65625000  0.34375000  0.65625000  1.0
  Nb  Nb4135  1  0.65625000  0.34375000  0.90625000  1.0
  Nb  Nb4136  1  0.65625000  0.59375000  0.15625000  1.0
  Nb  Nb4137  1  0.65625000  0.59375000  0.40625000  1.0
  Nb  Nb4138  1  0.65625000  0.59375000  0.65625000  1.0
  Nb  Nb4139  1  0.65625000  0.59375000  0.90625000  1.0
  Nb  Nb4140  1  0.65625000  0.84375000  0.15625000  1.0
  Nb  Nb4141  1  0.65625000  0.84375000  0.40625000  1.0
  Nb  Nb4142  1  0.65625000  0.84375000  0.65625000  1.0
  Nb  Nb4143  1  0.65625000  0.84375000  0.90625000  1.0
  Nb  Nb4144  1  0.90625000  0.09375000  0.15625000  1.0
  Nb  Nb4145  1  0.90625000  0.09375000  0.40625000  1.0
  Nb  Nb4146  1  0.90625000  0.09375000  0.65625000  1.0
  Nb  Nb4147  1  0.90625000  0.09375000  0.90625000  1.0
  Nb  Nb4148  1  0.90625000  0.34375000  0.15625000  1.0
  Nb  Nb4149  1  0.90625000  0.34375000  0.40625000  1.0
  Nb  Nb4150  1  0.90625000  0.34375000  0.65625000  1.0
  Nb  Nb4151  1  0.90625000  0.34375000  0.90625000  1.0
  Nb  Nb4152  1  0.90625000  0.59375000  0.15625000  1.0
  Nb  Nb4153  1  0.90625000  0.59375000  0.40625000  1.0
  Nb  Nb4154  1  0.90625000  0.59375000  0.65625000  1.0
  Nb  Nb4155  1  0.90625000  0.59375000  0.90625000  1.0
  Nb  Nb4156  1  0.90625000  0.84375000  0.15625000  1.0
  Nb  Nb4157  1  0.90625000  0.84375000  0.40625000  1.0
  Nb  Nb4158  1  0.90625000  0.84375000  0.65625000  1.0
  Nb  Nb4159  1  0.90625000  0.84375000  0.90625000  1.0
  Nb  Nb4160  1  0.03125000  0.21875000  0.15625000  1.0
  Nb  Nb4161  1  0.03125000  0.21875000  0.40625000  1.0
  Nb  Nb4162  1  0.03125000  0.21875000  0.65625000  1.0
  Nb  Nb4163  1  0.03125000  0.21875000  0.90625000  1.0
  Nb  Nb4164  1  0.03125000  0.46875000  0.15625000  1.0
  Nb  Nb4165  1  0.03125000  0.46875000  0.40625000  1.0
  Nb  Nb4166  1  0.03125000  0.46875000  0.65625000  1.0
  Nb  Nb4167  1  0.03125000  0.46875000  0.90625000  1.0
  Nb  Nb4168  1  0.03125000  0.71875000  0.15625000  1.0
  Nb  Nb4169  1  0.03125000  0.71875000  0.40625000  1.0
  Nb  Nb4170  1  0.03125000  0.71875000  0.65625000  1.0
  Nb  Nb4171  1  0.03125000  0.71875000  0.90625000  1.0
  Nb  Nb4172  1  0.03125000  0.96875000  0.15625000  1.0
  Nb  Nb4173  1  0.03125000  0.96875000  0.40625000  1.0
  Nb  Nb4174  1  0.03125000  0.96875000  0.65625000  1.0
  Nb  Nb4175  1  0.03125000  0.96875000  0.90625000  1.0
  Nb  Nb4176  1  0.28125000  0.21875000  0.15625000  1.0
  Nb  Nb4177  1  0.28125000  0.21875000  0.40625000  1.0
  Nb  Nb4178  1  0.28125000  0.21875000  0.65625000  1.0
  Nb  Nb4179  1  0.28125000  0.21875000  0.90625000  1.0
  Nb  Nb4180  1  0.28125000  0.46875000  0.15625000  1.0
  Nb  Nb4181  1  0.28125000  0.46875000  0.40625000  1.0
  Nb  Nb4182  1  0.28125000  0.46875000  0.65625000  1.0
  Nb  Nb4183  1  0.28125000  0.46875000  0.90625000  1.0
  Nb  Nb4184  1  0.28125000  0.71875000  0.15625000  1.0
  Nb  Nb4185  1  0.28125000  0.71875000  0.40625000  1.0
  Nb  Nb4186  1  0.28125000  0.71875000  0.65625000  1.0
  Nb  Nb4187  1  0.28125000  0.71875000  0.90625000  1.0
  Nb  Nb4188  1  0.28125000  0.96875000  0.15625000  1.0
  Nb  Nb4189  1  0.28125000  0.96875000  0.40625000  1.0
  Nb  Nb4190  1  0.28125000  0.96875000  0.65625000  1.0
  Nb  Nb4191  1  0.28125000  0.96875000  0.90625000  1.0
  Nb  Nb4192  1  0.53125000  0.21875000  0.15625000  1.0
  Nb  Nb4193  1  0.53125000  0.21875000  0.40625000  1.0
  Nb  Nb4194  1  0.53125000  0.21875000  0.65625000  1.0
  Nb  Nb4195  1  0.53125000  0.21875000  0.90625000  1.0
  Nb  Nb4196  1  0.53125000  0.46875000  0.15625000  1.0
  Nb  Nb4197  1  0.53125000  0.46875000  0.40625000  1.0
  Nb  Nb4198  1  0.53125000  0.46875000  0.65625000  1.0
  Nb  Nb4199  1  0.53125000  0.46875000  0.90625000  1.0
  Nb  Nb4200  1  0.53125000  0.71875000  0.15625000  1.0
  Nb  Nb4201  1  0.53125000  0.71875000  0.40625000  1.0
  Nb  Nb4202  1  0.53125000  0.71875000  0.65625000  1.0
  Nb  Nb4203  1  0.53125000  0.71875000  0.90625000  1.0
  Nb  Nb4204  1  0.53125000  0.96875000  0.15625000  1.0
  Nb  Nb4205  1  0.53125000  0.96875000  0.40625000  1.0
  Nb  Nb4206  1  0.53125000  0.96875000  0.65625000  1.0
  Nb  Nb4207  1  0.53125000  0.96875000  0.90625000  1.0
  Nb  Nb4208  1  0.78125000  0.21875000  0.15625000  1.0
  Nb  Nb4209  1  0.78125000  0.21875000  0.40625000  1.0
  Nb  Nb4210  1  0.78125000  0.21875000  0.65625000  1.0
  Nb  Nb4211  1  0.78125000  0.21875000  0.90625000  1.0
  Nb  Nb4212  1  0.78125000  0.46875000  0.15625000  1.0
  Nb  Nb4213  1  0.78125000  0.46875000  0.40625000  1.0
  Nb  Nb4214  1  0.78125000  0.46875000  0.65625000  1.0
  Nb  Nb4215  1  0.78125000  0.46875000  0.90625000  1.0
  Nb  Nb4216  1  0.78125000  0.71875000  0.15625000  1.0
  Nb  Nb4217  1  0.78125000  0.71875000  0.40625000  1.0
  Nb  Nb4218  1  0.78125000  0.71875000  0.65625000  1.0
  Nb  Nb4219  1  0.78125000  0.71875000  0.90625000  1.0
  Nb  Nb4220  1  0.78125000  0.96875000  0.15625000  1.0
  Nb  Nb4221  1  0.78125000  0.96875000  0.40625000  1.0
  Nb  Nb4222  1  0.78125000  0.96875000  0.65625000  1.0
  Nb  Nb4223  1  0.78125000  0.96875000  0.90625000  1.0
  Nb  Nb4224  1  0.03125000  0.09375000  0.03125000  1.0
  Nb  Nb4225  1  0.03125000  0.09375000  0.28125000  1.0
  Nb  Nb4226  1  0.03125000  0.09375000  0.53125000  1.0
  Nb  Nb4227  1  0.03125000  0.09375000  0.78125000  1.0
  Nb  Nb4228  1  0.03125000  0.34375000  0.03125000  1.0
  Nb  Nb4229  1  0.03125000  0.34375000  0.28125000  1.0
  Nb  Nb4230  1  0.03125000  0.34375000  0.53125000  1.0
  Nb  Nb4231  1  0.03125000  0.34375000  0.78125000  1.0
  Nb  Nb4232  1  0.03125000  0.59375000  0.03125000  1.0
  Nb  Nb4233  1  0.03125000  0.59375000  0.28125000  1.0
  Nb  Nb4234  1  0.03125000  0.59375000  0.53125000  1.0
  Nb  Nb4235  1  0.03125000  0.59375000  0.78125000  1.0
  Nb  Nb4236  1  0.03125000  0.84375000  0.03125000  1.0
  Nb  Nb4237  1  0.03125000  0.84375000  0.28125000  1.0
  Nb  Nb4238  1  0.03125000  0.84375000  0.53125000  1.0
  Nb  Nb4239  1  0.03125000  0.84375000  0.78125000  1.0
  Nb  Nb4240  1  0.28125000  0.09375000  0.03125000  1.0
  Nb  Nb4241  1  0.28125000  0.09375000  0.28125000  1.0
  Nb  Nb4242  1  0.28125000  0.09375000  0.53125000  1.0
  Nb  Nb4243  1  0.28125000  0.09375000  0.78125000  1.0
  Nb  Nb4244  1  0.28125000  0.34375000  0.03125000  1.0
  Nb  Nb4245  1  0.28125000  0.34375000  0.28125000  1.0
  Nb  Nb4246  1  0.28125000  0.34375000  0.53125000  1.0
  Nb  Nb4247  1  0.28125000  0.34375000  0.78125000  1.0
  Nb  Nb4248  1  0.28125000  0.59375000  0.03125000  1.0
  Nb  Nb4249  1  0.28125000  0.59375000  0.28125000  1.0
  Nb  Nb4250  1  0.28125000  0.59375000  0.53125000  1.0
  Nb  Nb4251  1  0.28125000  0.59375000  0.78125000  1.0
  Nb  Nb4252  1  0.28125000  0.84375000  0.03125000  1.0
  Nb  Nb4253  1  0.28125000  0.84375000  0.28125000  1.0
  Nb  Nb4254  1  0.28125000  0.84375000  0.53125000  1.0
  Nb  Nb4255  1  0.28125000  0.84375000  0.78125000  1.0
  Nb  Nb4256  1  0.53125000  0.09375000  0.03125000  1.0
  Nb  Nb4257  1  0.53125000  0.09375000  0.28125000  1.0
  Nb  Nb4258  1  0.53125000  0.09375000  0.53125000  1.0
  Nb  Nb4259  1  0.53125000  0.09375000  0.78125000  1.0
  Nb  Nb4260  1  0.53125000  0.34375000  0.03125000  1.0
  Nb  Nb4261  1  0.53125000  0.34375000  0.28125000  1.0
  Nb  Nb4262  1  0.53125000  0.34375000  0.53125000  1.0
  Nb  Nb4263  1  0.53125000  0.34375000  0.78125000  1.0
  Nb  Nb4264  1  0.53125000  0.59375000  0.03125000  1.0
  Nb  Nb4265  1  0.53125000  0.59375000  0.28125000  1.0
  Nb  Nb4266  1  0.53125000  0.59375000  0.53125000  1.0
  Nb  Nb4267  1  0.53125000  0.59375000  0.78125000  1.0
  Nb  Nb4268  1  0.53125000  0.84375000  0.03125000  1.0
  Nb  Nb4269  1  0.53125000  0.84375000  0.28125000  1.0
  Nb  Nb4270  1  0.53125000  0.84375000  0.53125000  1.0
  Nb  Nb4271  1  0.53125000  0.84375000  0.78125000  1.0
  Nb  Nb4272  1  0.78125000  0.09375000  0.03125000  1.0
  Nb  Nb4273  1  0.78125000  0.09375000  0.28125000  1.0
  Nb  Nb4274  1  0.78125000  0.09375000  0.53125000  1.0
  Nb  Nb4275  1  0.78125000  0.09375000  0.78125000  1.0
  Nb  Nb4276  1  0.78125000  0.34375000  0.03125000  1.0
  Nb  Nb4277  1  0.78125000  0.34375000  0.28125000  1.0
  Nb  Nb4278  1  0.78125000  0.34375000  0.53125000  1.0
  Nb  Nb4279  1  0.78125000  0.34375000  0.78125000  1.0
  Nb  Nb4280  1  0.78125000  0.59375000  0.03125000  1.0
  Nb  Nb4281  1  0.78125000  0.59375000  0.28125000  1.0
  Nb  Nb4282  1  0.78125000  0.59375000  0.53125000  1.0
  Nb  Nb4283  1  0.78125000  0.59375000  0.78125000  1.0
  Nb  Nb4284  1  0.78125000  0.84375000  0.03125000  1.0
  Nb  Nb4285  1  0.78125000  0.84375000  0.28125000  1.0
  Nb  Nb4286  1  0.78125000  0.84375000  0.53125000  1.0
  Nb  Nb4287  1  0.78125000  0.84375000  0.78125000  1.0
  Nb  Nb4288  1  0.15625000  0.21875000  0.03125000  1.0
  Nb  Nb4289  1  0.15625000  0.21875000  0.28125000  1.0
  Nb  Nb4290  1  0.15625000  0.21875000  0.53125000  1.0
  Nb  Nb4291  1  0.15625000  0.21875000  0.78125000  1.0
  Nb  Nb4292  1  0.15625000  0.46875000  0.03125000  1.0
  Nb  Nb4293  1  0.15625000  0.46875000  0.28125000  1.0
  Nb  Nb4294  1  0.15625000  0.46875000  0.53125000  1.0
  Nb  Nb4295  1  0.15625000  0.46875000  0.78125000  1.0
  Nb  Nb4296  1  0.15625000  0.71875000  0.03125000  1.0
  Nb  Nb4297  1  0.15625000  0.71875000  0.28125000  1.0
  Nb  Nb4298  1  0.15625000  0.71875000  0.53125000  1.0
  Nb  Nb4299  1  0.15625000  0.71875000  0.78125000  1.0
  Nb  Nb4300  1  0.15625000  0.96875000  0.03125000  1.0
  Nb  Nb4301  1  0.15625000  0.96875000  0.28125000  1.0
  Nb  Nb4302  1  0.15625000  0.96875000  0.53125000  1.0
  Nb  Nb4303  1  0.15625000  0.96875000  0.78125000  1.0
  Nb  Nb4304  1  0.40625000  0.21875000  0.03125000  1.0
  Nb  Nb4305  1  0.40625000  0.21875000  0.28125000  1.0
  Nb  Nb4306  1  0.40625000  0.21875000  0.53125000  1.0
  Nb  Nb4307  1  0.40625000  0.21875000  0.78125000  1.0
  Nb  Nb4308  1  0.40625000  0.46875000  0.03125000  1.0
  Nb  Nb4309  1  0.40625000  0.46875000  0.28125000  1.0
  Nb  Nb4310  1  0.40625000  0.46875000  0.53125000  1.0
  Nb  Nb4311  1  0.40625000  0.46875000  0.78125000  1.0
  Nb  Nb4312  1  0.40625000  0.71875000  0.03125000  1.0
  Nb  Nb4313  1  0.40625000  0.71875000  0.28125000  1.0
  Nb  Nb4314  1  0.40625000  0.71875000  0.53125000  1.0
  Nb  Nb4315  1  0.40625000  0.71875000  0.78125000  1.0
  Nb  Nb4316  1  0.40625000  0.96875000  0.03125000  1.0
  Nb  Nb4317  1  0.40625000  0.96875000  0.28125000  1.0
  Nb  Nb4318  1  0.40625000  0.96875000  0.53125000  1.0
  Nb  Nb4319  1  0.40625000  0.96875000  0.78125000  1.0
  Nb  Nb4320  1  0.65625000  0.21875000  0.03125000  1.0
  Nb  Nb4321  1  0.65625000  0.21875000  0.28125000  1.0
  Nb  Nb4322  1  0.65625000  0.21875000  0.53125000  1.0
  Nb  Nb4323  1  0.65625000  0.21875000  0.78125000  1.0
  Nb  Nb4324  1  0.65625000  0.46875000  0.03125000  1.0
  Nb  Nb4325  1  0.65625000  0.46875000  0.28125000  1.0
  Nb  Nb4326  1  0.65625000  0.46875000  0.53125000  1.0
  Nb  Nb4327  1  0.65625000  0.46875000  0.78125000  1.0
  Nb  Nb4328  1  0.65625000  0.71875000  0.03125000  1.0
  Nb  Nb4329  1  0.65625000  0.71875000  0.28125000  1.0
  Nb  Nb4330  1  0.65625000  0.71875000  0.53125000  1.0
  Nb  Nb4331  1  0.65625000  0.71875000  0.78125000  1.0
  Nb  Nb4332  1  0.65625000  0.96875000  0.03125000  1.0
  Nb  Nb4333  1  0.65625000  0.96875000  0.28125000  1.0
  Nb  Nb4334  1  0.65625000  0.96875000  0.53125000  1.0
  Nb  Nb4335  1  0.65625000  0.96875000  0.78125000  1.0
  Nb  Nb4336  1  0.90625000  0.21875000  0.03125000  1.0
  Nb  Nb4337  1  0.90625000  0.21875000  0.28125000  1.0
  Nb  Nb4338  1  0.90625000  0.21875000  0.53125000  1.0
  Nb  Nb4339  1  0.90625000  0.21875000  0.78125000  1.0
  Nb  Nb4340  1  0.90625000  0.46875000  0.03125000  1.0
  Nb  Nb4341  1  0.90625000  0.46875000  0.28125000  1.0
  Nb  Nb4342  1  0.90625000  0.46875000  0.53125000  1.0
  Nb  Nb4343  1  0.90625000  0.46875000  0.78125000  1.0
  Nb  Nb4344  1  0.90625000  0.71875000  0.03125000  1.0
  Nb  Nb4345  1  0.90625000  0.71875000  0.28125000  1.0
  Nb  Nb4346  1  0.90625000  0.71875000  0.53125000  1.0
  Nb  Nb4347  1  0.90625000  0.71875000  0.78125000  1.0
  Nb  Nb4348  1  0.90625000  0.96875000  0.03125000  1.0
  Nb  Nb4349  1  0.90625000  0.96875000  0.28125000  1.0
  Nb  Nb4350  1  0.90625000  0.96875000  0.53125000  1.0
  Nb  Nb4351  1  0.90625000  0.96875000  0.78125000  1.0
  Nb  Nb4352  1  0.09375000  0.15625000  0.15625000  1.0
  Nb  Nb4353  1  0.09375000  0.15625000  0.40625000  1.0
  Nb  Nb4354  1  0.09375000  0.15625000  0.65625000  1.0
  Nb  Nb4355  1  0.09375000  0.15625000  0.90625000  1.0
  Nb  Nb4356  1  0.09375000  0.40625000  0.15625000  1.0
  Nb  Nb4357  1  0.09375000  0.40625000  0.40625000  1.0
  Nb  Nb4358  1  0.09375000  0.40625000  0.65625000  1.0
  Nb  Nb4359  1  0.09375000  0.40625000  0.90625000  1.0
  Nb  Nb4360  1  0.09375000  0.65625000  0.15625000  1.0
  Nb  Nb4361  1  0.09375000  0.65625000  0.40625000  1.0
  Nb  Nb4362  1  0.09375000  0.65625000  0.65625000  1.0
  Nb  Nb4363  1  0.09375000  0.65625000  0.90625000  1.0
  Nb  Nb4364  1  0.09375000  0.90625000  0.15625000  1.0
  Nb  Nb4365  1  0.09375000  0.90625000  0.40625000  1.0
  Nb  Nb4366  1  0.09375000  0.90625000  0.65625000  1.0
  Nb  Nb4367  1  0.09375000  0.90625000  0.90625000  1.0
  Nb  Nb4368  1  0.34375000  0.15625000  0.15625000  1.0
  Nb  Nb4369  1  0.34375000  0.15625000  0.40625000  1.0
  Nb  Nb4370  1  0.34375000  0.15625000  0.65625000  1.0
  Nb  Nb4371  1  0.34375000  0.15625000  0.90625000  1.0
  Nb  Nb4372  1  0.34375000  0.40625000  0.15625000  1.0
  Nb  Nb4373  1  0.34375000  0.40625000  0.40625000  1.0
  Nb  Nb4374  1  0.34375000  0.40625000  0.65625000  1.0
  Nb  Nb4375  1  0.34375000  0.40625000  0.90625000  1.0
  Nb  Nb4376  1  0.34375000  0.65625000  0.15625000  1.0
  Nb  Nb4377  1  0.34375000  0.65625000  0.40625000  1.0
  Nb  Nb4378  1  0.34375000  0.65625000  0.65625000  1.0
  Nb  Nb4379  1  0.34375000  0.65625000  0.90625000  1.0
  Nb  Nb4380  1  0.34375000  0.90625000  0.15625000  1.0
  Nb  Nb4381  1  0.34375000  0.90625000  0.40625000  1.0
  Nb  Nb4382  1  0.34375000  0.90625000  0.65625000  1.0
  Nb  Nb4383  1  0.34375000  0.90625000  0.90625000  1.0
  Nb  Nb4384  1  0.59375000  0.15625000  0.15625000  1.0
  Nb  Nb4385  1  0.59375000  0.15625000  0.40625000  1.0
  Nb  Nb4386  1  0.59375000  0.15625000  0.65625000  1.0
  Nb  Nb4387  1  0.59375000  0.15625000  0.90625000  1.0
  Nb  Nb4388  1  0.59375000  0.40625000  0.15625000  1.0
  Nb  Nb4389  1  0.59375000  0.40625000  0.40625000  1.0
  Nb  Nb4390  1  0.59375000  0.40625000  0.65625000  1.0
  Nb  Nb4391  1  0.59375000  0.40625000  0.90625000  1.0
  Nb  Nb4392  1  0.59375000  0.65625000  0.15625000  1.0
  Nb  Nb4393  1  0.59375000  0.65625000  0.40625000  1.0
  Nb  Nb4394  1  0.59375000  0.65625000  0.65625000  1.0
  Nb  Nb4395  1  0.59375000  0.65625000  0.90625000  1.0
  Nb  Nb4396  1  0.59375000  0.90625000  0.15625000  1.0
  Nb  Nb4397  1  0.59375000  0.90625000  0.40625000  1.0
  Nb  Nb4398  1  0.59375000  0.90625000  0.65625000  1.0
  Nb  Nb4399  1  0.59375000  0.90625000  0.90625000  1.0
  Nb  Nb4400  1  0.84375000  0.15625000  0.15625000  1.0
  Nb  Nb4401  1  0.84375000  0.15625000  0.40625000  1.0
  Nb  Nb4402  1  0.84375000  0.15625000  0.65625000  1.0
  Nb  Nb4403  1  0.84375000  0.15625000  0.90625000  1.0
  Nb  Nb4404  1  0.84375000  0.40625000  0.15625000  1.0
  Nb  Nb4405  1  0.84375000  0.40625000  0.40625000  1.0
  Nb  Nb4406  1  0.84375000  0.40625000  0.65625000  1.0
  Nb  Nb4407  1  0.84375000  0.40625000  0.90625000  1.0
  Nb  Nb4408  1  0.84375000  0.65625000  0.15625000  1.0
  Nb  Nb4409  1  0.84375000  0.65625000  0.40625000  1.0
  Nb  Nb4410  1  0.84375000  0.65625000  0.65625000  1.0
  Nb  Nb4411  1  0.84375000  0.65625000  0.90625000  1.0
  Nb  Nb4412  1  0.84375000  0.90625000  0.15625000  1.0
  Nb  Nb4413  1  0.84375000  0.90625000  0.40625000  1.0
  Nb  Nb4414  1  0.84375000  0.90625000  0.65625000  1.0
  Nb  Nb4415  1  0.84375000  0.90625000  0.90625000  1.0
  Nb  Nb4416  1  0.21875000  0.03125000  0.15625000  1.0
  Nb  Nb4417  1  0.21875000  0.03125000  0.40625000  1.0
  Nb  Nb4418  1  0.21875000  0.03125000  0.65625000  1.0
  Nb  Nb4419  1  0.21875000  0.03125000  0.90625000  1.0
  Nb  Nb4420  1  0.21875000  0.28125000  0.15625000  1.0
  Nb  Nb4421  1  0.21875000  0.28125000  0.40625000  1.0
  Nb  Nb4422  1  0.21875000  0.28125000  0.65625000  1.0
  Nb  Nb4423  1  0.21875000  0.28125000  0.90625000  1.0
  Nb  Nb4424  1  0.21875000  0.53125000  0.15625000  1.0
  Nb  Nb4425  1  0.21875000  0.53125000  0.40625000  1.0
  Nb  Nb4426  1  0.21875000  0.53125000  0.65625000  1.0
  Nb  Nb4427  1  0.21875000  0.53125000  0.90625000  1.0
  Nb  Nb4428  1  0.21875000  0.78125000  0.15625000  1.0
  Nb  Nb4429  1  0.21875000  0.78125000  0.40625000  1.0
  Nb  Nb4430  1  0.21875000  0.78125000  0.65625000  1.0
  Nb  Nb4431  1  0.21875000  0.78125000  0.90625000  1.0
  Nb  Nb4432  1  0.46875000  0.03125000  0.15625000  1.0
  Nb  Nb4433  1  0.46875000  0.03125000  0.40625000  1.0
  Nb  Nb4434  1  0.46875000  0.03125000  0.65625000  1.0
  Nb  Nb4435  1  0.46875000  0.03125000  0.90625000  1.0
  Nb  Nb4436  1  0.46875000  0.28125000  0.15625000  1.0
  Nb  Nb4437  1  0.46875000  0.28125000  0.40625000  1.0
  Nb  Nb4438  1  0.46875000  0.28125000  0.65625000  1.0
  Nb  Nb4439  1  0.46875000  0.28125000  0.90625000  1.0
  Nb  Nb4440  1  0.46875000  0.53125000  0.15625000  1.0
  Nb  Nb4441  1  0.46875000  0.53125000  0.40625000  1.0
  Nb  Nb4442  1  0.46875000  0.53125000  0.65625000  1.0
  Nb  Nb4443  1  0.46875000  0.53125000  0.90625000  1.0
  Nb  Nb4444  1  0.46875000  0.78125000  0.15625000  1.0
  Nb  Nb4445  1  0.46875000  0.78125000  0.40625000  1.0
  Nb  Nb4446  1  0.46875000  0.78125000  0.65625000  1.0
  Nb  Nb4447  1  0.46875000  0.78125000  0.90625000  1.0
  Nb  Nb4448  1  0.71875000  0.03125000  0.15625000  1.0
  Nb  Nb4449  1  0.71875000  0.03125000  0.40625000  1.0
  Nb  Nb4450  1  0.71875000  0.03125000  0.65625000  1.0
  Nb  Nb4451  1  0.71875000  0.03125000  0.90625000  1.0
  Nb  Nb4452  1  0.71875000  0.28125000  0.15625000  1.0
  Nb  Nb4453  1  0.71875000  0.28125000  0.40625000  1.0
  Nb  Nb4454  1  0.71875000  0.28125000  0.65625000  1.0
  Nb  Nb4455  1  0.71875000  0.28125000  0.90625000  1.0
  Nb  Nb4456  1  0.71875000  0.53125000  0.15625000  1.0
  Nb  Nb4457  1  0.71875000  0.53125000  0.40625000  1.0
  Nb  Nb4458  1  0.71875000  0.53125000  0.65625000  1.0
  Nb  Nb4459  1  0.71875000  0.53125000  0.90625000  1.0
  Nb  Nb4460  1  0.71875000  0.78125000  0.15625000  1.0
  Nb  Nb4461  1  0.71875000  0.78125000  0.40625000  1.0
  Nb  Nb4462  1  0.71875000  0.78125000  0.65625000  1.0
  Nb  Nb4463  1  0.71875000  0.78125000  0.90625000  1.0
  Nb  Nb4464  1  0.96875000  0.03125000  0.15625000  1.0
  Nb  Nb4465  1  0.96875000  0.03125000  0.40625000  1.0
  Nb  Nb4466  1  0.96875000  0.03125000  0.65625000  1.0
  Nb  Nb4467  1  0.96875000  0.03125000  0.90625000  1.0
  Nb  Nb4468  1  0.96875000  0.28125000  0.15625000  1.0
  Nb  Nb4469  1  0.96875000  0.28125000  0.40625000  1.0
  Nb  Nb4470  1  0.96875000  0.28125000  0.65625000  1.0
  Nb  Nb4471  1  0.96875000  0.28125000  0.90625000  1.0
  Nb  Nb4472  1  0.96875000  0.53125000  0.15625000  1.0
  Nb  Nb4473  1  0.96875000  0.53125000  0.40625000  1.0
  Nb  Nb4474  1  0.96875000  0.53125000  0.65625000  1.0
  Nb  Nb4475  1  0.96875000  0.53125000  0.90625000  1.0
  Nb  Nb4476  1  0.96875000  0.78125000  0.15625000  1.0
  Nb  Nb4477  1  0.96875000  0.78125000  0.40625000  1.0
  Nb  Nb4478  1  0.96875000  0.78125000  0.65625000  1.0
  Nb  Nb4479  1  0.96875000  0.78125000  0.90625000  1.0
  Nb  Nb4480  1  0.21875000  0.15625000  0.03125000  1.0
  Nb  Nb4481  1  0.21875000  0.15625000  0.28125000  1.0
  Nb  Nb4482  1  0.21875000  0.15625000  0.53125000  1.0
  Nb  Nb4483  1  0.21875000  0.15625000  0.78125000  1.0
  Nb  Nb4484  1  0.21875000  0.40625000  0.03125000  1.0
  Nb  Nb4485  1  0.21875000  0.40625000  0.28125000  1.0
  Nb  Nb4486  1  0.21875000  0.40625000  0.53125000  1.0
  Nb  Nb4487  1  0.21875000  0.40625000  0.78125000  1.0
  Nb  Nb4488  1  0.21875000  0.65625000  0.03125000  1.0
  Nb  Nb4489  1  0.21875000  0.65625000  0.28125000  1.0
  Nb  Nb4490  1  0.21875000  0.65625000  0.53125000  1.0
  Nb  Nb4491  1  0.21875000  0.65625000  0.78125000  1.0
  Nb  Nb4492  1  0.21875000  0.90625000  0.03125000  1.0
  Nb  Nb4493  1  0.21875000  0.90625000  0.28125000  1.0
  Nb  Nb4494  1  0.21875000  0.90625000  0.53125000  1.0
  Nb  Nb4495  1  0.21875000  0.90625000  0.78125000  1.0
  Nb  Nb4496  1  0.46875000  0.15625000  0.03125000  1.0
  Nb  Nb4497  1  0.46875000  0.15625000  0.28125000  1.0
  Nb  Nb4498  1  0.46875000  0.15625000  0.53125000  1.0
  Nb  Nb4499  1  0.46875000  0.15625000  0.78125000  1.0
  Nb  Nb4500  1  0.46875000  0.40625000  0.03125000  1.0
  Nb  Nb4501  1  0.46875000  0.40625000  0.28125000  1.0
  Nb  Nb4502  1  0.46875000  0.40625000  0.53125000  1.0
  Nb  Nb4503  1  0.46875000  0.40625000  0.78125000  1.0
  Nb  Nb4504  1  0.46875000  0.65625000  0.03125000  1.0
  Nb  Nb4505  1  0.46875000  0.65625000  0.28125000  1.0
  Nb  Nb4506  1  0.46875000  0.65625000  0.53125000  1.0
  Nb  Nb4507  1  0.46875000  0.65625000  0.78125000  1.0
  Nb  Nb4508  1  0.46875000  0.90625000  0.03125000  1.0
  Nb  Nb4509  1  0.46875000  0.90625000  0.28125000  1.0
  Nb  Nb4510  1  0.46875000  0.90625000  0.53125000  1.0
  Nb  Nb4511  1  0.46875000  0.90625000  0.78125000  1.0
  Nb  Nb4512  1  0.71875000  0.15625000  0.03125000  1.0
  Nb  Nb4513  1  0.71875000  0.15625000  0.28125000  1.0
  Nb  Nb4514  1  0.71875000  0.15625000  0.53125000  1.0
  Nb  Nb4515  1  0.71875000  0.15625000  0.78125000  1.0
  Nb  Nb4516  1  0.71875000  0.40625000  0.03125000  1.0
  Nb  Nb4517  1  0.71875000  0.40625000  0.28125000  1.0
  Nb  Nb4518  1  0.71875000  0.40625000  0.53125000  1.0
  Nb  Nb4519  1  0.71875000  0.40625000  0.78125000  1.0
  Nb  Nb4520  1  0.71875000  0.65625000  0.03125000  1.0
  Nb  Nb4521  1  0.71875000  0.65625000  0.28125000  1.0
  Nb  Nb4522  1  0.71875000  0.65625000  0.53125000  1.0
  Nb  Nb4523  1  0.71875000  0.65625000  0.78125000  1.0
  Nb  Nb4524  1  0.71875000  0.90625000  0.03125000  1.0
  Nb  Nb4525  1  0.71875000  0.90625000  0.28125000  1.0
  Nb  Nb4526  1  0.71875000  0.90625000  0.53125000  1.0
  Nb  Nb4527  1  0.71875000  0.90625000  0.78125000  1.0
  Nb  Nb4528  1  0.96875000  0.15625000  0.03125000  1.0
  Nb  Nb4529  1  0.96875000  0.15625000  0.28125000  1.0
  Nb  Nb4530  1  0.96875000  0.15625000  0.53125000  1.0
  Nb  Nb4531  1  0.96875000  0.15625000  0.78125000  1.0
  Nb  Nb4532  1  0.96875000  0.40625000  0.03125000  1.0
  Nb  Nb4533  1  0.96875000  0.40625000  0.28125000  1.0
  Nb  Nb4534  1  0.96875000  0.40625000  0.53125000  1.0
  Nb  Nb4535  1  0.96875000  0.40625000  0.78125000  1.0
  Nb  Nb4536  1  0.96875000  0.65625000  0.03125000  1.0
  Nb  Nb4537  1  0.96875000  0.65625000  0.28125000  1.0
  Nb  Nb4538  1  0.96875000  0.65625000  0.53125000  1.0
  Nb  Nb4539  1  0.96875000  0.65625000  0.78125000  1.0
  Nb  Nb4540  1  0.96875000  0.90625000  0.03125000  1.0
  Nb  Nb4541  1  0.96875000  0.90625000  0.28125000  1.0
  Nb  Nb4542  1  0.96875000  0.90625000  0.53125000  1.0
  Nb  Nb4543  1  0.96875000  0.90625000  0.78125000  1.0
  Nb  Nb4544  1  0.09375000  0.03125000  0.03125000  1.0
  Nb  Nb4545  1  0.09375000  0.03125000  0.28125000  1.0
  Nb  Nb4546  1  0.09375000  0.03125000  0.53125000  1.0
  Nb  Nb4547  1  0.09375000  0.03125000  0.78125000  1.0
  Nb  Nb4548  1  0.09375000  0.28125000  0.03125000  1.0
  Nb  Nb4549  1  0.09375000  0.28125000  0.28125000  1.0
  Nb  Nb4550  1  0.09375000  0.28125000  0.53125000  1.0
  Nb  Nb4551  1  0.09375000  0.28125000  0.78125000  1.0
  Nb  Nb4552  1  0.09375000  0.53125000  0.03125000  1.0
  Nb  Nb4553  1  0.09375000  0.53125000  0.28125000  1.0
  Nb  Nb4554  1  0.09375000  0.53125000  0.53125000  1.0
  Nb  Nb4555  1  0.09375000  0.53125000  0.78125000  1.0
  Nb  Nb4556  1  0.09375000  0.78125000  0.03125000  1.0
  Nb  Nb4557  1  0.09375000  0.78125000  0.28125000  1.0
  Nb  Nb4558  1  0.09375000  0.78125000  0.53125000  1.0
  Nb  Nb4559  1  0.09375000  0.78125000  0.78125000  1.0
  Nb  Nb4560  1  0.34375000  0.03125000  0.03125000  1.0
  Nb  Nb4561  1  0.34375000  0.03125000  0.28125000  1.0
  Nb  Nb4562  1  0.34375000  0.03125000  0.53125000  1.0
  Nb  Nb4563  1  0.34375000  0.03125000  0.78125000  1.0
  Nb  Nb4564  1  0.34375000  0.28125000  0.03125000  1.0
  Nb  Nb4565  1  0.34375000  0.28125000  0.28125000  1.0
  Nb  Nb4566  1  0.34375000  0.28125000  0.53125000  1.0
  Nb  Nb4567  1  0.34375000  0.28125000  0.78125000  1.0
  Nb  Nb4568  1  0.34375000  0.53125000  0.03125000  1.0
  Nb  Nb4569  1  0.34375000  0.53125000  0.28125000  1.0
  Nb  Nb4570  1  0.34375000  0.53125000  0.53125000  1.0
  Nb  Nb4571  1  0.34375000  0.53125000  0.78125000  1.0
  Nb  Nb4572  1  0.34375000  0.78125000  0.03125000  1.0
  Nb  Nb4573  1  0.34375000  0.78125000  0.28125000  1.0
  Nb  Nb4574  1  0.34375000  0.78125000  0.53125000  1.0
  Nb  Nb4575  1  0.34375000  0.78125000  0.78125000  1.0
  Nb  Nb4576  1  0.59375000  0.03125000  0.03125000  1.0
  Nb  Nb4577  1  0.59375000  0.03125000  0.28125000  1.0
  Nb  Nb4578  1  0.59375000  0.03125000  0.53125000  1.0
  Nb  Nb4579  1  0.59375000  0.03125000  0.78125000  1.0
  Nb  Nb4580  1  0.59375000  0.28125000  0.03125000  1.0
  Nb  Nb4581  1  0.59375000  0.28125000  0.28125000  1.0
  Nb  Nb4582  1  0.59375000  0.28125000  0.53125000  1.0
  Nb  Nb4583  1  0.59375000  0.28125000  0.78125000  1.0
  Nb  Nb4584  1  0.59375000  0.53125000  0.03125000  1.0
  Nb  Nb4585  1  0.59375000  0.53125000  0.28125000  1.0
  Nb  Nb4586  1  0.59375000  0.53125000  0.53125000  1.0
  Nb  Nb4587  1  0.59375000  0.53125000  0.78125000  1.0
  Nb  Nb4588  1  0.59375000  0.78125000  0.03125000  1.0
  Nb  Nb4589  1  0.59375000  0.78125000  0.28125000  1.0
  Nb  Nb4590  1  0.59375000  0.78125000  0.53125000  1.0
  Nb  Nb4591  1  0.59375000  0.78125000  0.78125000  1.0
  Nb  Nb4592  1  0.84375000  0.03125000  0.03125000  1.0
  Nb  Nb4593  1  0.84375000  0.03125000  0.28125000  1.0
  Nb  Nb4594  1  0.84375000  0.03125000  0.53125000  1.0
  Nb  Nb4595  1  0.84375000  0.03125000  0.78125000  1.0
  Nb  Nb4596  1  0.84375000  0.28125000  0.03125000  1.0
  Nb  Nb4597  1  0.84375000  0.28125000  0.28125000  1.0
  Nb  Nb4598  1  0.84375000  0.28125000  0.53125000  1.0
  Nb  Nb4599  1  0.84375000  0.28125000  0.78125000  1.0
  Nb  Nb4600  1  0.84375000  0.53125000  0.03125000  1.0
  Nb  Nb4601  1  0.84375000  0.53125000  0.28125000  1.0
  Nb  Nb4602  1  0.84375000  0.53125000  0.53125000  1.0
  Nb  Nb4603  1  0.84375000  0.53125000  0.78125000  1.0
  Nb  Nb4604  1  0.84375000  0.78125000  0.03125000  1.0
  Nb  Nb4605  1  0.84375000  0.78125000  0.28125000  1.0
  Nb  Nb4606  1  0.84375000  0.78125000  0.53125000  1.0
  Nb  Nb4607  1  0.84375000  0.78125000  0.78125000  1.0
  Nb  Nb4608  1  0.15625000  0.09375000  0.09375000  1.0
  Nb  Nb4609  1  0.15625000  0.09375000  0.34375000  1.0
  Nb  Nb4610  1  0.15625000  0.09375000  0.59375000  1.0
  Nb  Nb4611  1  0.15625000  0.09375000  0.84375000  1.0
  Nb  Nb4612  1  0.15625000  0.34375000  0.09375000  1.0
  Nb  Nb4613  1  0.15625000  0.34375000  0.34375000  1.0
  Nb  Nb4614  1  0.15625000  0.34375000  0.59375000  1.0
  Nb  Nb4615  1  0.15625000  0.34375000  0.84375000  1.0
  Nb  Nb4616  1  0.15625000  0.59375000  0.09375000  1.0
  Nb  Nb4617  1  0.15625000  0.59375000  0.34375000  1.0
  Nb  Nb4618  1  0.15625000  0.59375000  0.59375000  1.0
  Nb  Nb4619  1  0.15625000  0.59375000  0.84375000  1.0
  Nb  Nb4620  1  0.15625000  0.84375000  0.09375000  1.0
  Nb  Nb4621  1  0.15625000  0.84375000  0.34375000  1.0
  Nb  Nb4622  1  0.15625000  0.84375000  0.59375000  1.0
  Nb  Nb4623  1  0.15625000  0.84375000  0.84375000  1.0
  Nb  Nb4624  1  0.40625000  0.09375000  0.09375000  1.0
  Nb  Nb4625  1  0.40625000  0.09375000  0.34375000  1.0
  Nb  Nb4626  1  0.40625000  0.09375000  0.59375000  1.0
  Nb  Nb4627  1  0.40625000  0.09375000  0.84375000  1.0
  Nb  Nb4628  1  0.40625000  0.34375000  0.09375000  1.0
  Nb  Nb4629  1  0.40625000  0.34375000  0.34375000  1.0
  Nb  Nb4630  1  0.40625000  0.34375000  0.59375000  1.0
  Nb  Nb4631  1  0.40625000  0.34375000  0.84375000  1.0
  Nb  Nb4632  1  0.40625000  0.59375000  0.09375000  1.0
  Nb  Nb4633  1  0.40625000  0.59375000  0.34375000  1.0
  Nb  Nb4634  1  0.40625000  0.59375000  0.59375000  1.0
  Nb  Nb4635  1  0.40625000  0.59375000  0.84375000  1.0
  Nb  Nb4636  1  0.40625000  0.84375000  0.09375000  1.0
  Nb  Nb4637  1  0.40625000  0.84375000  0.34375000  1.0
  Nb  Nb4638  1  0.40625000  0.84375000  0.59375000  1.0
  Nb  Nb4639  1  0.40625000  0.84375000  0.84375000  1.0
  Nb  Nb4640  1  0.65625000  0.09375000  0.09375000  1.0
  Nb  Nb4641  1  0.65625000  0.09375000  0.34375000  1.0
  Nb  Nb4642  1  0.65625000  0.09375000  0.59375000  1.0
  Nb  Nb4643  1  0.65625000  0.09375000  0.84375000  1.0
  Nb  Nb4644  1  0.65625000  0.34375000  0.09375000  1.0
  Nb  Nb4645  1  0.65625000  0.34375000  0.34375000  1.0
  Nb  Nb4646  1  0.65625000  0.34375000  0.59375000  1.0
  Nb  Nb4647  1  0.65625000  0.34375000  0.84375000  1.0
  Nb  Nb4648  1  0.65625000  0.59375000  0.09375000  1.0
  Nb  Nb4649  1  0.65625000  0.59375000  0.34375000  1.0
  Nb  Nb4650  1  0.65625000  0.59375000  0.59375000  1.0
  Nb  Nb4651  1  0.65625000  0.59375000  0.84375000  1.0
  Nb  Nb4652  1  0.65625000  0.84375000  0.09375000  1.0
  Nb  Nb4653  1  0.65625000  0.84375000  0.34375000  1.0
  Nb  Nb4654  1  0.65625000  0.84375000  0.59375000  1.0
  Nb  Nb4655  1  0.65625000  0.84375000  0.84375000  1.0
  Nb  Nb4656  1  0.90625000  0.09375000  0.09375000  1.0
  Nb  Nb4657  1  0.90625000  0.09375000  0.34375000  1.0
  Nb  Nb4658  1  0.90625000  0.09375000  0.59375000  1.0
  Nb  Nb4659  1  0.90625000  0.09375000  0.84375000  1.0
  Nb  Nb4660  1  0.90625000  0.34375000  0.09375000  1.0
  Nb  Nb4661  1  0.90625000  0.34375000  0.34375000  1.0
  Nb  Nb4662  1  0.90625000  0.34375000  0.59375000  1.0
  Nb  Nb4663  1  0.90625000  0.34375000  0.84375000  1.0
  Nb  Nb4664  1  0.90625000  0.59375000  0.09375000  1.0
  Nb  Nb4665  1  0.90625000  0.59375000  0.34375000  1.0
  Nb  Nb4666  1  0.90625000  0.59375000  0.59375000  1.0
  Nb  Nb4667  1  0.90625000  0.59375000  0.84375000  1.0
  Nb  Nb4668  1  0.90625000  0.84375000  0.09375000  1.0
  Nb  Nb4669  1  0.90625000  0.84375000  0.34375000  1.0
  Nb  Nb4670  1  0.90625000  0.84375000  0.59375000  1.0
  Nb  Nb4671  1  0.90625000  0.84375000  0.84375000  1.0
  Nb  Nb4672  1  0.03125000  0.21875000  0.09375000  1.0
  Nb  Nb4673  1  0.03125000  0.21875000  0.34375000  1.0
  Nb  Nb4674  1  0.03125000  0.21875000  0.59375000  1.0
  Nb  Nb4675  1  0.03125000  0.21875000  0.84375000  1.0
  Nb  Nb4676  1  0.03125000  0.46875000  0.09375000  1.0
  Nb  Nb4677  1  0.03125000  0.46875000  0.34375000  1.0
  Nb  Nb4678  1  0.03125000  0.46875000  0.59375000  1.0
  Nb  Nb4679  1  0.03125000  0.46875000  0.84375000  1.0
  Nb  Nb4680  1  0.03125000  0.71875000  0.09375000  1.0
  Nb  Nb4681  1  0.03125000  0.71875000  0.34375000  1.0
  Nb  Nb4682  1  0.03125000  0.71875000  0.59375000  1.0
  Nb  Nb4683  1  0.03125000  0.71875000  0.84375000  1.0
  Nb  Nb4684  1  0.03125000  0.96875000  0.09375000  1.0
  Nb  Nb4685  1  0.03125000  0.96875000  0.34375000  1.0
  Nb  Nb4686  1  0.03125000  0.96875000  0.59375000  1.0
  Nb  Nb4687  1  0.03125000  0.96875000  0.84375000  1.0
  Nb  Nb4688  1  0.28125000  0.21875000  0.09375000  1.0
  Nb  Nb4689  1  0.28125000  0.21875000  0.34375000  1.0
  Nb  Nb4690  1  0.28125000  0.21875000  0.59375000  1.0
  Nb  Nb4691  1  0.28125000  0.21875000  0.84375000  1.0
  Nb  Nb4692  1  0.28125000  0.46875000  0.09375000  1.0
  Nb  Nb4693  1  0.28125000  0.46875000  0.34375000  1.0
  Nb  Nb4694  1  0.28125000  0.46875000  0.59375000  1.0
  Nb  Nb4695  1  0.28125000  0.46875000  0.84375000  1.0
  Nb  Nb4696  1  0.28125000  0.71875000  0.09375000  1.0
  Nb  Nb4697  1  0.28125000  0.71875000  0.34375000  1.0
  Nb  Nb4698  1  0.28125000  0.71875000  0.59375000  1.0
  Nb  Nb4699  1  0.28125000  0.71875000  0.84375000  1.0
  Nb  Nb4700  1  0.28125000  0.96875000  0.09375000  1.0
  Nb  Nb4701  1  0.28125000  0.96875000  0.34375000  1.0
  Nb  Nb4702  1  0.28125000  0.96875000  0.59375000  1.0
  Nb  Nb4703  1  0.28125000  0.96875000  0.84375000  1.0
  Nb  Nb4704  1  0.53125000  0.21875000  0.09375000  1.0
  Nb  Nb4705  1  0.53125000  0.21875000  0.34375000  1.0
  Nb  Nb4706  1  0.53125000  0.21875000  0.59375000  1.0
  Nb  Nb4707  1  0.53125000  0.21875000  0.84375000  1.0
  Nb  Nb4708  1  0.53125000  0.46875000  0.09375000  1.0
  Nb  Nb4709  1  0.53125000  0.46875000  0.34375000  1.0
  Nb  Nb4710  1  0.53125000  0.46875000  0.59375000  1.0
  Nb  Nb4711  1  0.53125000  0.46875000  0.84375000  1.0
  Nb  Nb4712  1  0.53125000  0.71875000  0.09375000  1.0
  Nb  Nb4713  1  0.53125000  0.71875000  0.34375000  1.0
  Nb  Nb4714  1  0.53125000  0.71875000  0.59375000  1.0
  Nb  Nb4715  1  0.53125000  0.71875000  0.84375000  1.0
  Nb  Nb4716  1  0.53125000  0.96875000  0.09375000  1.0
  Nb  Nb4717  1  0.53125000  0.96875000  0.34375000  1.0
  Nb  Nb4718  1  0.53125000  0.96875000  0.59375000  1.0
  Nb  Nb4719  1  0.53125000  0.96875000  0.84375000  1.0
  Nb  Nb4720  1  0.78125000  0.21875000  0.09375000  1.0
  Nb  Nb4721  1  0.78125000  0.21875000  0.34375000  1.0
  Nb  Nb4722  1  0.78125000  0.21875000  0.59375000  1.0
  Nb  Nb4723  1  0.78125000  0.21875000  0.84375000  1.0
  Nb  Nb4724  1  0.78125000  0.46875000  0.09375000  1.0
  Nb  Nb4725  1  0.78125000  0.46875000  0.34375000  1.0
  Nb  Nb4726  1  0.78125000  0.46875000  0.59375000  1.0
  Nb  Nb4727  1  0.78125000  0.46875000  0.84375000  1.0
  Nb  Nb4728  1  0.78125000  0.71875000  0.09375000  1.0
  Nb  Nb4729  1  0.78125000  0.71875000  0.34375000  1.0
  Nb  Nb4730  1  0.78125000  0.71875000  0.59375000  1.0
  Nb  Nb4731  1  0.78125000  0.71875000  0.84375000  1.0
  Nb  Nb4732  1  0.78125000  0.96875000  0.09375000  1.0
  Nb  Nb4733  1  0.78125000  0.96875000  0.34375000  1.0
  Nb  Nb4734  1  0.78125000  0.96875000  0.59375000  1.0
  Nb  Nb4735  1  0.78125000  0.96875000  0.84375000  1.0
  Nb  Nb4736  1  0.03125000  0.09375000  0.21875000  1.0
  Nb  Nb4737  1  0.03125000  0.09375000  0.46875000  1.0
  Nb  Nb4738  1  0.03125000  0.09375000  0.71875000  1.0
  Nb  Nb4739  1  0.03125000  0.09375000  0.96875000  1.0
  Nb  Nb4740  1  0.03125000  0.34375000  0.21875000  1.0
  Nb  Nb4741  1  0.03125000  0.34375000  0.46875000  1.0
  Nb  Nb4742  1  0.03125000  0.34375000  0.71875000  1.0
  Nb  Nb4743  1  0.03125000  0.34375000  0.96875000  1.0
  Nb  Nb4744  1  0.03125000  0.59375000  0.21875000  1.0
  Nb  Nb4745  1  0.03125000  0.59375000  0.46875000  1.0
  Nb  Nb4746  1  0.03125000  0.59375000  0.71875000  1.0
  Nb  Nb4747  1  0.03125000  0.59375000  0.96875000  1.0
  Nb  Nb4748  1  0.03125000  0.84375000  0.21875000  1.0
  Nb  Nb4749  1  0.03125000  0.84375000  0.46875000  1.0
  Nb  Nb4750  1  0.03125000  0.84375000  0.71875000  1.0
  Nb  Nb4751  1  0.03125000  0.84375000  0.96875000  1.0
  Nb  Nb4752  1  0.28125000  0.09375000  0.21875000  1.0
  Nb  Nb4753  1  0.28125000  0.09375000  0.46875000  1.0
  Nb  Nb4754  1  0.28125000  0.09375000  0.71875000  1.0
  Nb  Nb4755  1  0.28125000  0.09375000  0.96875000  1.0
  Nb  Nb4756  1  0.28125000  0.34375000  0.21875000  1.0
  Nb  Nb4757  1  0.28125000  0.34375000  0.46875000  1.0
  Nb  Nb4758  1  0.28125000  0.34375000  0.71875000  1.0
  Nb  Nb4759  1  0.28125000  0.34375000  0.96875000  1.0
  Nb  Nb4760  1  0.28125000  0.59375000  0.21875000  1.0
  Nb  Nb4761  1  0.28125000  0.59375000  0.46875000  1.0
  Nb  Nb4762  1  0.28125000  0.59375000  0.71875000  1.0
  Nb  Nb4763  1  0.28125000  0.59375000  0.96875000  1.0
  Nb  Nb4764  1  0.28125000  0.84375000  0.21875000  1.0
  Nb  Nb4765  1  0.28125000  0.84375000  0.46875000  1.0
  Nb  Nb4766  1  0.28125000  0.84375000  0.71875000  1.0
  Nb  Nb4767  1  0.28125000  0.84375000  0.96875000  1.0
  Nb  Nb4768  1  0.53125000  0.09375000  0.21875000  1.0
  Nb  Nb4769  1  0.53125000  0.09375000  0.46875000  1.0
  Nb  Nb4770  1  0.53125000  0.09375000  0.71875000  1.0
  Nb  Nb4771  1  0.53125000  0.09375000  0.96875000  1.0
  Nb  Nb4772  1  0.53125000  0.34375000  0.21875000  1.0
  Nb  Nb4773  1  0.53125000  0.34375000  0.46875000  1.0
  Nb  Nb4774  1  0.53125000  0.34375000  0.71875000  1.0
  Nb  Nb4775  1  0.53125000  0.34375000  0.96875000  1.0
  Nb  Nb4776  1  0.53125000  0.59375000  0.21875000  1.0
  Nb  Nb4777  1  0.53125000  0.59375000  0.46875000  1.0
  Nb  Nb4778  1  0.53125000  0.59375000  0.71875000  1.0
  Nb  Nb4779  1  0.53125000  0.59375000  0.96875000  1.0
  Nb  Nb4780  1  0.53125000  0.84375000  0.21875000  1.0
  Nb  Nb4781  1  0.53125000  0.84375000  0.46875000  1.0
  Nb  Nb4782  1  0.53125000  0.84375000  0.71875000  1.0
  Nb  Nb4783  1  0.53125000  0.84375000  0.96875000  1.0
  Nb  Nb4784  1  0.78125000  0.09375000  0.21875000  1.0
  Nb  Nb4785  1  0.78125000  0.09375000  0.46875000  1.0
  Nb  Nb4786  1  0.78125000  0.09375000  0.71875000  1.0
  Nb  Nb4787  1  0.78125000  0.09375000  0.96875000  1.0
  Nb  Nb4788  1  0.78125000  0.34375000  0.21875000  1.0
  Nb  Nb4789  1  0.78125000  0.34375000  0.46875000  1.0
  Nb  Nb4790  1  0.78125000  0.34375000  0.71875000  1.0
  Nb  Nb4791  1  0.78125000  0.34375000  0.96875000  1.0
  Nb  Nb4792  1  0.78125000  0.59375000  0.21875000  1.0
  Nb  Nb4793  1  0.78125000  0.59375000  0.46875000  1.0
  Nb  Nb4794  1  0.78125000  0.59375000  0.71875000  1.0
  Nb  Nb4795  1  0.78125000  0.59375000  0.96875000  1.0
  Nb  Nb4796  1  0.78125000  0.84375000  0.21875000  1.0
  Nb  Nb4797  1  0.78125000  0.84375000  0.46875000  1.0
  Nb  Nb4798  1  0.78125000  0.84375000  0.71875000  1.0
  Nb  Nb4799  1  0.78125000  0.84375000  0.96875000  1.0
  Nb  Nb4800  1  0.15625000  0.21875000  0.21875000  1.0
  Nb  Nb4801  1  0.15625000  0.21875000  0.46875000  1.0
  Nb  Nb4802  1  0.15625000  0.21875000  0.71875000  1.0
  Nb  Nb4803  1  0.15625000  0.21875000  0.96875000  1.0
  Nb  Nb4804  1  0.15625000  0.46875000  0.21875000  1.0
  Nb  Nb4805  1  0.15625000  0.46875000  0.46875000  1.0
  Nb  Nb4806  1  0.15625000  0.46875000  0.71875000  1.0
  Nb  Nb4807  1  0.15625000  0.46875000  0.96875000  1.0
  Nb  Nb4808  1  0.15625000  0.71875000  0.21875000  1.0
  Nb  Nb4809  1  0.15625000  0.71875000  0.46875000  1.0
  Nb  Nb4810  1  0.15625000  0.71875000  0.71875000  1.0
  Nb  Nb4811  1  0.15625000  0.71875000  0.96875000  1.0
  Nb  Nb4812  1  0.15625000  0.96875000  0.21875000  1.0
  Nb  Nb4813  1  0.15625000  0.96875000  0.46875000  1.0
  Nb  Nb4814  1  0.15625000  0.96875000  0.71875000  1.0
  Nb  Nb4815  1  0.15625000  0.96875000  0.96875000  1.0
  Nb  Nb4816  1  0.40625000  0.21875000  0.21875000  1.0
  Nb  Nb4817  1  0.40625000  0.21875000  0.46875000  1.0
  Nb  Nb4818  1  0.40625000  0.21875000  0.71875000  1.0
  Nb  Nb4819  1  0.40625000  0.21875000  0.96875000  1.0
  Nb  Nb4820  1  0.40625000  0.46875000  0.21875000  1.0
  Nb  Nb4821  1  0.40625000  0.46875000  0.46875000  1.0
  Nb  Nb4822  1  0.40625000  0.46875000  0.71875000  1.0
  Nb  Nb4823  1  0.40625000  0.46875000  0.96875000  1.0
  Nb  Nb4824  1  0.40625000  0.71875000  0.21875000  1.0
  Nb  Nb4825  1  0.40625000  0.71875000  0.46875000  1.0
  Nb  Nb4826  1  0.40625000  0.71875000  0.71875000  1.0
  Nb  Nb4827  1  0.40625000  0.71875000  0.96875000  1.0
  Nb  Nb4828  1  0.40625000  0.96875000  0.21875000  1.0
  Nb  Nb4829  1  0.40625000  0.96875000  0.46875000  1.0
  Nb  Nb4830  1  0.40625000  0.96875000  0.71875000  1.0
  Nb  Nb4831  1  0.40625000  0.96875000  0.96875000  1.0
  Nb  Nb4832  1  0.65625000  0.21875000  0.21875000  1.0
  Nb  Nb4833  1  0.65625000  0.21875000  0.46875000  1.0
  Nb  Nb4834  1  0.65625000  0.21875000  0.71875000  1.0
  Nb  Nb4835  1  0.65625000  0.21875000  0.96875000  1.0
  Nb  Nb4836  1  0.65625000  0.46875000  0.21875000  1.0
  Nb  Nb4837  1  0.65625000  0.46875000  0.46875000  1.0
  Nb  Nb4838  1  0.65625000  0.46875000  0.71875000  1.0
  Nb  Nb4839  1  0.65625000  0.46875000  0.96875000  1.0
  Nb  Nb4840  1  0.65625000  0.71875000  0.21875000  1.0
  Nb  Nb4841  1  0.65625000  0.71875000  0.46875000  1.0
  Nb  Nb4842  1  0.65625000  0.71875000  0.71875000  1.0
  Nb  Nb4843  1  0.65625000  0.71875000  0.96875000  1.0
  Nb  Nb4844  1  0.65625000  0.96875000  0.21875000  1.0
  Nb  Nb4845  1  0.65625000  0.96875000  0.46875000  1.0
  Nb  Nb4846  1  0.65625000  0.96875000  0.71875000  1.0
  Nb  Nb4847  1  0.65625000  0.96875000  0.96875000  1.0
  Nb  Nb4848  1  0.90625000  0.21875000  0.21875000  1.0
  Nb  Nb4849  1  0.90625000  0.21875000  0.46875000  1.0
  Nb  Nb4850  1  0.90625000  0.21875000  0.71875000  1.0
  Nb  Nb4851  1  0.90625000  0.21875000  0.96875000  1.0
  Nb  Nb4852  1  0.90625000  0.46875000  0.21875000  1.0
  Nb  Nb4853  1  0.90625000  0.46875000  0.46875000  1.0
  Nb  Nb4854  1  0.90625000  0.46875000  0.71875000  1.0
  Nb  Nb4855  1  0.90625000  0.46875000  0.96875000  1.0
  Nb  Nb4856  1  0.90625000  0.71875000  0.21875000  1.0
  Nb  Nb4857  1  0.90625000  0.71875000  0.46875000  1.0
  Nb  Nb4858  1  0.90625000  0.71875000  0.71875000  1.0
  Nb  Nb4859  1  0.90625000  0.71875000  0.96875000  1.0
  Nb  Nb4860  1  0.90625000  0.96875000  0.21875000  1.0
  Nb  Nb4861  1  0.90625000  0.96875000  0.46875000  1.0
  Nb  Nb4862  1  0.90625000  0.96875000  0.71875000  1.0
  Nb  Nb4863  1  0.90625000  0.96875000  0.96875000  1.0
  Nb  Nb4864  1  0.09375000  0.15625000  0.09375000  1.0
  Nb  Nb4865  1  0.09375000  0.15625000  0.34375000  1.0
  Nb  Nb4866  1  0.09375000  0.15625000  0.59375000  1.0
  Nb  Nb4867  1  0.09375000  0.15625000  0.84375000  1.0
  Nb  Nb4868  1  0.09375000  0.40625000  0.09375000  1.0
  Nb  Nb4869  1  0.09375000  0.40625000  0.34375000  1.0
  Nb  Nb4870  1  0.09375000  0.40625000  0.59375000  1.0
  Nb  Nb4871  1  0.09375000  0.40625000  0.84375000  1.0
  Nb  Nb4872  1  0.09375000  0.65625000  0.09375000  1.0
  Nb  Nb4873  1  0.09375000  0.65625000  0.34375000  1.0
  Nb  Nb4874  1  0.09375000  0.65625000  0.59375000  1.0
  Nb  Nb4875  1  0.09375000  0.65625000  0.84375000  1.0
  Nb  Nb4876  1  0.09375000  0.90625000  0.09375000  1.0
  Nb  Nb4877  1  0.09375000  0.90625000  0.34375000  1.0
  Nb  Nb4878  1  0.09375000  0.90625000  0.59375000  1.0
  Nb  Nb4879  1  0.09375000  0.90625000  0.84375000  1.0
  Nb  Nb4880  1  0.34375000  0.15625000  0.09375000  1.0
  Nb  Nb4881  1  0.34375000  0.15625000  0.34375000  1.0
  Nb  Nb4882  1  0.34375000  0.15625000  0.59375000  1.0
  Nb  Nb4883  1  0.34375000  0.15625000  0.84375000  1.0
  Nb  Nb4884  1  0.34375000  0.40625000  0.09375000  1.0
  Nb  Nb4885  1  0.34375000  0.40625000  0.34375000  1.0
  Nb  Nb4886  1  0.34375000  0.40625000  0.59375000  1.0
  Nb  Nb4887  1  0.34375000  0.40625000  0.84375000  1.0
  Nb  Nb4888  1  0.34375000  0.65625000  0.09375000  1.0
  Nb  Nb4889  1  0.34375000  0.65625000  0.34375000  1.0
  Nb  Nb4890  1  0.34375000  0.65625000  0.59375000  1.0
  Nb  Nb4891  1  0.34375000  0.65625000  0.84375000  1.0
  Nb  Nb4892  1  0.34375000  0.90625000  0.09375000  1.0
  Nb  Nb4893  1  0.34375000  0.90625000  0.34375000  1.0
  Nb  Nb4894  1  0.34375000  0.90625000  0.59375000  1.0
  Nb  Nb4895  1  0.34375000  0.90625000  0.84375000  1.0
  Nb  Nb4896  1  0.59375000  0.15625000  0.09375000  1.0
  Nb  Nb4897  1  0.59375000  0.15625000  0.34375000  1.0
  Nb  Nb4898  1  0.59375000  0.15625000  0.59375000  1.0
  Nb  Nb4899  1  0.59375000  0.15625000  0.84375000  1.0
  Nb  Nb4900  1  0.59375000  0.40625000  0.09375000  1.0
  Nb  Nb4901  1  0.59375000  0.40625000  0.34375000  1.0
  Nb  Nb4902  1  0.59375000  0.40625000  0.59375000  1.0
  Nb  Nb4903  1  0.59375000  0.40625000  0.84375000  1.0
  Nb  Nb4904  1  0.59375000  0.65625000  0.09375000  1.0
  Nb  Nb4905  1  0.59375000  0.65625000  0.34375000  1.0
  Nb  Nb4906  1  0.59375000  0.65625000  0.59375000  1.0
  Nb  Nb4907  1  0.59375000  0.65625000  0.84375000  1.0
  Nb  Nb4908  1  0.59375000  0.90625000  0.09375000  1.0
  Nb  Nb4909  1  0.59375000  0.90625000  0.34375000  1.0
  Nb  Nb4910  1  0.59375000  0.90625000  0.59375000  1.0
  Nb  Nb4911  1  0.59375000  0.90625000  0.84375000  1.0
  Nb  Nb4912  1  0.84375000  0.15625000  0.09375000  1.0
  Nb  Nb4913  1  0.84375000  0.15625000  0.34375000  1.0
  Nb  Nb4914  1  0.84375000  0.15625000  0.59375000  1.0
  Nb  Nb4915  1  0.84375000  0.15625000  0.84375000  1.0
  Nb  Nb4916  1  0.84375000  0.40625000  0.09375000  1.0
  Nb  Nb4917  1  0.84375000  0.40625000  0.34375000  1.0
  Nb  Nb4918  1  0.84375000  0.40625000  0.59375000  1.0
  Nb  Nb4919  1  0.84375000  0.40625000  0.84375000  1.0
  Nb  Nb4920  1  0.84375000  0.65625000  0.09375000  1.0
  Nb  Nb4921  1  0.84375000  0.65625000  0.34375000  1.0
  Nb  Nb4922  1  0.84375000  0.65625000  0.59375000  1.0
  Nb  Nb4923  1  0.84375000  0.65625000  0.84375000  1.0
  Nb  Nb4924  1  0.84375000  0.90625000  0.09375000  1.0
  Nb  Nb4925  1  0.84375000  0.90625000  0.34375000  1.0
  Nb  Nb4926  1  0.84375000  0.90625000  0.59375000  1.0
  Nb  Nb4927  1  0.84375000  0.90625000  0.84375000  1.0
  Nb  Nb4928  1  0.21875000  0.03125000  0.09375000  1.0
  Nb  Nb4929  1  0.21875000  0.03125000  0.34375000  1.0
  Nb  Nb4930  1  0.21875000  0.03125000  0.59375000  1.0
  Nb  Nb4931  1  0.21875000  0.03125000  0.84375000  1.0
  Nb  Nb4932  1  0.21875000  0.28125000  0.09375000  1.0
  Nb  Nb4933  1  0.21875000  0.28125000  0.34375000  1.0
  Nb  Nb4934  1  0.21875000  0.28125000  0.59375000  1.0
  Nb  Nb4935  1  0.21875000  0.28125000  0.84375000  1.0
  Nb  Nb4936  1  0.21875000  0.53125000  0.09375000  1.0
  Nb  Nb4937  1  0.21875000  0.53125000  0.34375000  1.0
  Nb  Nb4938  1  0.21875000  0.53125000  0.59375000  1.0
  Nb  Nb4939  1  0.21875000  0.53125000  0.84375000  1.0
  Nb  Nb4940  1  0.21875000  0.78125000  0.09375000  1.0
  Nb  Nb4941  1  0.21875000  0.78125000  0.34375000  1.0
  Nb  Nb4942  1  0.21875000  0.78125000  0.59375000  1.0
  Nb  Nb4943  1  0.21875000  0.78125000  0.84375000  1.0
  Nb  Nb4944  1  0.46875000  0.03125000  0.09375000  1.0
  Nb  Nb4945  1  0.46875000  0.03125000  0.34375000  1.0
  Nb  Nb4946  1  0.46875000  0.03125000  0.59375000  1.0
  Nb  Nb4947  1  0.46875000  0.03125000  0.84375000  1.0
  Nb  Nb4948  1  0.46875000  0.28125000  0.09375000  1.0
  Nb  Nb4949  1  0.46875000  0.28125000  0.34375000  1.0
  Nb  Nb4950  1  0.46875000  0.28125000  0.59375000  1.0
  Nb  Nb4951  1  0.46875000  0.28125000  0.84375000  1.0
  Nb  Nb4952  1  0.46875000  0.53125000  0.09375000  1.0
  Nb  Nb4953  1  0.46875000  0.53125000  0.34375000  1.0
  Nb  Nb4954  1  0.46875000  0.53125000  0.59375000  1.0
  Nb  Nb4955  1  0.46875000  0.53125000  0.84375000  1.0
  Nb  Nb4956  1  0.46875000  0.78125000  0.09375000  1.0
  Nb  Nb4957  1  0.46875000  0.78125000  0.34375000  1.0
  Nb  Nb4958  1  0.46875000  0.78125000  0.59375000  1.0
  Nb  Nb4959  1  0.46875000  0.78125000  0.84375000  1.0
  Nb  Nb4960  1  0.71875000  0.03125000  0.09375000  1.0
  Nb  Nb4961  1  0.71875000  0.03125000  0.34375000  1.0
  Nb  Nb4962  1  0.71875000  0.03125000  0.59375000  1.0
  Nb  Nb4963  1  0.71875000  0.03125000  0.84375000  1.0
  Nb  Nb4964  1  0.71875000  0.28125000  0.09375000  1.0
  Nb  Nb4965  1  0.71875000  0.28125000  0.34375000  1.0
  Nb  Nb4966  1  0.71875000  0.28125000  0.59375000  1.0
  Nb  Nb4967  1  0.71875000  0.28125000  0.84375000  1.0
  Nb  Nb4968  1  0.71875000  0.53125000  0.09375000  1.0
  Nb  Nb4969  1  0.71875000  0.53125000  0.34375000  1.0
  Nb  Nb4970  1  0.71875000  0.53125000  0.59375000  1.0
  Nb  Nb4971  1  0.71875000  0.53125000  0.84375000  1.0
  Nb  Nb4972  1  0.71875000  0.78125000  0.09375000  1.0
  Nb  Nb4973  1  0.71875000  0.78125000  0.34375000  1.0
  Nb  Nb4974  1  0.71875000  0.78125000  0.59375000  1.0
  Nb  Nb4975  1  0.71875000  0.78125000  0.84375000  1.0
  Nb  Nb4976  1  0.96875000  0.03125000  0.09375000  1.0
  Nb  Nb4977  1  0.96875000  0.03125000  0.34375000  1.0
  Nb  Nb4978  1  0.96875000  0.03125000  0.59375000  1.0
  Nb  Nb4979  1  0.96875000  0.03125000  0.84375000  1.0
  Nb  Nb4980  1  0.96875000  0.28125000  0.09375000  1.0
  Nb  Nb4981  1  0.96875000  0.28125000  0.34375000  1.0
  Nb  Nb4982  1  0.96875000  0.28125000  0.59375000  1.0
  Nb  Nb4983  1  0.96875000  0.28125000  0.84375000  1.0
  Nb  Nb4984  1  0.96875000  0.53125000  0.09375000  1.0
  Nb  Nb4985  1  0.96875000  0.53125000  0.34375000  1.0
  Nb  Nb4986  1  0.96875000  0.53125000  0.59375000  1.0
  Nb  Nb4987  1  0.96875000  0.53125000  0.84375000  1.0
  Nb  Nb4988  1  0.96875000  0.78125000  0.09375000  1.0
  Nb  Nb4989  1  0.96875000  0.78125000  0.34375000  1.0
  Nb  Nb4990  1  0.96875000  0.78125000  0.59375000  1.0
  Nb  Nb4991  1  0.96875000  0.78125000  0.84375000  1.0
  Nb  Nb4992  1  0.21875000  0.15625000  0.21875000  1.0
  Nb  Nb4993  1  0.21875000  0.15625000  0.46875000  1.0
  Nb  Nb4994  1  0.21875000  0.15625000  0.71875000  1.0
  Nb  Nb4995  1  0.21875000  0.15625000  0.96875000  1.0
  Nb  Nb4996  1  0.21875000  0.40625000  0.21875000  1.0
  Nb  Nb4997  1  0.21875000  0.40625000  0.46875000  1.0
  Nb  Nb4998  1  0.21875000  0.40625000  0.71875000  1.0
  Nb  Nb4999  1  0.21875000  0.40625000  0.96875000  1.0
  Nb  Nb5000  1  0.21875000  0.65625000  0.21875000  1.0
  Nb  Nb5001  1  0.21875000  0.65625000  0.46875000  1.0
  Nb  Nb5002  1  0.21875000  0.65625000  0.71875000  1.0
  Nb  Nb5003  1  0.21875000  0.65625000  0.96875000  1.0
  Nb  Nb5004  1  0.21875000  0.90625000  0.21875000  1.0
  Nb  Nb5005  1  0.21875000  0.90625000  0.46875000  1.0
  Nb  Nb5006  1  0.21875000  0.90625000  0.71875000  1.0
  Nb  Nb5007  1  0.21875000  0.90625000  0.96875000  1.0
  Nb  Nb5008  1  0.46875000  0.15625000  0.21875000  1.0
  Nb  Nb5009  1  0.46875000  0.15625000  0.46875000  1.0
  Nb  Nb5010  1  0.46875000  0.15625000  0.71875000  1.0
  Nb  Nb5011  1  0.46875000  0.15625000  0.96875000  1.0
  Nb  Nb5012  1  0.46875000  0.40625000  0.21875000  1.0
  Nb  Nb5013  1  0.46875000  0.40625000  0.46875000  1.0
  Nb  Nb5014  1  0.46875000  0.40625000  0.71875000  1.0
  Nb  Nb5015  1  0.46875000  0.40625000  0.96875000  1.0
  Nb  Nb5016  1  0.46875000  0.65625000  0.21875000  1.0
  Nb  Nb5017  1  0.46875000  0.65625000  0.46875000  1.0
  Nb  Nb5018  1  0.46875000  0.65625000  0.71875000  1.0
  Nb  Nb5019  1  0.46875000  0.65625000  0.96875000  1.0
  Nb  Nb5020  1  0.46875000  0.90625000  0.21875000  1.0
  Nb  Nb5021  1  0.46875000  0.90625000  0.46875000  1.0
  Nb  Nb5022  1  0.46875000  0.90625000  0.71875000  1.0
  Nb  Nb5023  1  0.46875000  0.90625000  0.96875000  1.0
  Nb  Nb5024  1  0.71875000  0.15625000  0.21875000  1.0
  Nb  Nb5025  1  0.71875000  0.15625000  0.46875000  1.0
  Nb  Nb5026  1  0.71875000  0.15625000  0.71875000  1.0
  Nb  Nb5027  1  0.71875000  0.15625000  0.96875000  1.0
  Nb  Nb5028  1  0.71875000  0.40625000  0.21875000  1.0
  Nb  Nb5029  1  0.71875000  0.40625000  0.46875000  1.0
  Nb  Nb5030  1  0.71875000  0.40625000  0.71875000  1.0
  Nb  Nb5031  1  0.71875000  0.40625000  0.96875000  1.0
  Nb  Nb5032  1  0.71875000  0.65625000  0.21875000  1.0
  Nb  Nb5033  1  0.71875000  0.65625000  0.46875000  1.0
  Nb  Nb5034  1  0.71875000  0.65625000  0.71875000  1.0
  Nb  Nb5035  1  0.71875000  0.65625000  0.96875000  1.0
  Nb  Nb5036  1  0.71875000  0.90625000  0.21875000  1.0
  Nb  Nb5037  1  0.71875000  0.90625000  0.46875000  1.0
  Nb  Nb5038  1  0.71875000  0.90625000  0.71875000  1.0
  Nb  Nb5039  1  0.71875000  0.90625000  0.96875000  1.0
  Nb  Nb5040  1  0.96875000  0.15625000  0.21875000  1.0
  Nb  Nb5041  1  0.96875000  0.15625000  0.46875000  1.0
  Nb  Nb5042  1  0.96875000  0.15625000  0.71875000  1.0
  Nb  Nb5043  1  0.96875000  0.15625000  0.96875000  1.0
  Nb  Nb5044  1  0.96875000  0.40625000  0.21875000  1.0
  Nb  Nb5045  1  0.96875000  0.40625000  0.46875000  1.0
  Nb  Nb5046  1  0.96875000  0.40625000  0.71875000  1.0
  Nb  Nb5047  1  0.96875000  0.40625000  0.96875000  1.0
  Nb  Nb5048  1  0.96875000  0.65625000  0.21875000  1.0
  Nb  Nb5049  1  0.96875000  0.65625000  0.46875000  1.0
  Nb  Nb5050  1  0.96875000  0.65625000  0.71875000  1.0
  Nb  Nb5051  1  0.96875000  0.65625000  0.96875000  1.0
  Nb  Nb5052  1  0.96875000  0.90625000  0.21875000  1.0
  Nb  Nb5053  1  0.96875000  0.90625000  0.46875000  1.0
  Nb  Nb5054  1  0.96875000  0.90625000  0.71875000  1.0
  Nb  Nb5055  1  0.96875000  0.90625000  0.96875000  1.0
  Nb  Nb5056  1  0.09375000  0.03125000  0.21875000  1.0
  Nb  Nb5057  1  0.09375000  0.03125000  0.46875000  1.0
  Nb  Nb5058  1  0.09375000  0.03125000  0.71875000  1.0
  Nb  Nb5059  1  0.09375000  0.03125000  0.96875000  1.0
  Nb  Nb5060  1  0.09375000  0.28125000  0.21875000  1.0
  Nb  Nb5061  1  0.09375000  0.28125000  0.46875000  1.0
  Nb  Nb5062  1  0.09375000  0.28125000  0.71875000  1.0
  Nb  Nb5063  1  0.09375000  0.28125000  0.96875000  1.0
  Nb  Nb5064  1  0.09375000  0.53125000  0.21875000  1.0
  Nb  Nb5065  1  0.09375000  0.53125000  0.46875000  1.0
  Nb  Nb5066  1  0.09375000  0.53125000  0.71875000  1.0
  Nb  Nb5067  1  0.09375000  0.53125000  0.96875000  1.0
  Nb  Nb5068  1  0.09375000  0.78125000  0.21875000  1.0
  Nb  Nb5069  1  0.09375000  0.78125000  0.46875000  1.0
  Nb  Nb5070  1  0.09375000  0.78125000  0.71875000  1.0
  Nb  Nb5071  1  0.09375000  0.78125000  0.96875000  1.0
  Nb  Nb5072  1  0.34375000  0.03125000  0.21875000  1.0
  Nb  Nb5073  1  0.34375000  0.03125000  0.46875000  1.0
  Nb  Nb5074  1  0.34375000  0.03125000  0.71875000  1.0
  Nb  Nb5075  1  0.34375000  0.03125000  0.96875000  1.0
  Nb  Nb5076  1  0.34375000  0.28125000  0.21875000  1.0
  Nb  Nb5077  1  0.34375000  0.28125000  0.46875000  1.0
  Nb  Nb5078  1  0.34375000  0.28125000  0.71875000  1.0
  Nb  Nb5079  1  0.34375000  0.28125000  0.96875000  1.0
  Nb  Nb5080  1  0.34375000  0.53125000  0.21875000  1.0
  Nb  Nb5081  1  0.34375000  0.53125000  0.46875000  1.0
  Nb  Nb5082  1  0.34375000  0.53125000  0.71875000  1.0
  Nb  Nb5083  1  0.34375000  0.53125000  0.96875000  1.0
  Nb  Nb5084  1  0.34375000  0.78125000  0.21875000  1.0
  Nb  Nb5085  1  0.34375000  0.78125000  0.46875000  1.0
  Nb  Nb5086  1  0.34375000  0.78125000  0.71875000  1.0
  Nb  Nb5087  1  0.34375000  0.78125000  0.96875000  1.0
  Nb  Nb5088  1  0.59375000  0.03125000  0.21875000  1.0
  Nb  Nb5089  1  0.59375000  0.03125000  0.46875000  1.0
  Nb  Nb5090  1  0.59375000  0.03125000  0.71875000  1.0
  Nb  Nb5091  1  0.59375000  0.03125000  0.96875000  1.0
  Nb  Nb5092  1  0.59375000  0.28125000  0.21875000  1.0
  Nb  Nb5093  1  0.59375000  0.28125000  0.46875000  1.0
  Nb  Nb5094  1  0.59375000  0.28125000  0.71875000  1.0
  Nb  Nb5095  1  0.59375000  0.28125000  0.96875000  1.0
  Nb  Nb5096  1  0.59375000  0.53125000  0.21875000  1.0
  Nb  Nb5097  1  0.59375000  0.53125000  0.46875000  1.0
  Nb  Nb5098  1  0.59375000  0.53125000  0.71875000  1.0
  Nb  Nb5099  1  0.59375000  0.53125000  0.96875000  1.0
  Nb  Nb5100  1  0.59375000  0.78125000  0.21875000  1.0
  Nb  Nb5101  1  0.59375000  0.78125000  0.46875000  1.0
  Nb  Nb5102  1  0.59375000  0.78125000  0.71875000  1.0
  Nb  Nb5103  1  0.59375000  0.78125000  0.96875000  1.0
  Nb  Nb5104  1  0.84375000  0.03125000  0.21875000  1.0
  Nb  Nb5105  1  0.84375000  0.03125000  0.46875000  1.0
  Nb  Nb5106  1  0.84375000  0.03125000  0.71875000  1.0
  Nb  Nb5107  1  0.84375000  0.03125000  0.96875000  1.0
  Nb  Nb5108  1  0.84375000  0.28125000  0.21875000  1.0
  Nb  Nb5109  1  0.84375000  0.28125000  0.46875000  1.0
  Nb  Nb5110  1  0.84375000  0.28125000  0.71875000  1.0
  Nb  Nb5111  1  0.84375000  0.28125000  0.96875000  1.0
  Nb  Nb5112  1  0.84375000  0.53125000  0.21875000  1.0
  Nb  Nb5113  1  0.84375000  0.53125000  0.46875000  1.0
  Nb  Nb5114  1  0.84375000  0.53125000  0.71875000  1.0
  Nb  Nb5115  1  0.84375000  0.53125000  0.96875000  1.0
  Nb  Nb5116  1  0.84375000  0.78125000  0.21875000  1.0
  Nb  Nb5117  1  0.84375000  0.78125000  0.46875000  1.0
  Nb  Nb5118  1  0.84375000  0.78125000  0.71875000  1.0
  Nb  Nb5119  1  0.84375000  0.78125000  0.96875000  1.0
  Nb  Nb5120  1  0.09375000  0.09375000  0.03125000  1.0
  Nb  Nb5121  1  0.09375000  0.09375000  0.28125000  1.0
  Nb  Nb5122  1  0.09375000  0.09375000  0.53125000  1.0
  Nb  Nb5123  1  0.09375000  0.09375000  0.78125000  1.0
  Nb  Nb5124  1  0.09375000  0.34375000  0.03125000  1.0
  Nb  Nb5125  1  0.09375000  0.34375000  0.28125000  1.0
  Nb  Nb5126  1  0.09375000  0.34375000  0.53125000  1.0
  Nb  Nb5127  1  0.09375000  0.34375000  0.78125000  1.0
  Nb  Nb5128  1  0.09375000  0.59375000  0.03125000  1.0
  Nb  Nb5129  1  0.09375000  0.59375000  0.28125000  1.0
  Nb  Nb5130  1  0.09375000  0.59375000  0.53125000  1.0
  Nb  Nb5131  1  0.09375000  0.59375000  0.78125000  1.0
  Nb  Nb5132  1  0.09375000  0.84375000  0.03125000  1.0
  Nb  Nb5133  1  0.09375000  0.84375000  0.28125000  1.0
  Nb  Nb5134  1  0.09375000  0.84375000  0.53125000  1.0
  Nb  Nb5135  1  0.09375000  0.84375000  0.78125000  1.0
  Nb  Nb5136  1  0.34375000  0.09375000  0.03125000  1.0
  Nb  Nb5137  1  0.34375000  0.09375000  0.28125000  1.0
  Nb  Nb5138  1  0.34375000  0.09375000  0.53125000  1.0
  Nb  Nb5139  1  0.34375000  0.09375000  0.78125000  1.0
  Nb  Nb5140  1  0.34375000  0.34375000  0.03125000  1.0
  Nb  Nb5141  1  0.34375000  0.34375000  0.28125000  1.0
  Nb  Nb5142  1  0.34375000  0.34375000  0.53125000  1.0
  Nb  Nb5143  1  0.34375000  0.34375000  0.78125000  1.0
  Nb  Nb5144  1  0.34375000  0.59375000  0.03125000  1.0
  Nb  Nb5145  1  0.34375000  0.59375000  0.28125000  1.0
  Nb  Nb5146  1  0.34375000  0.59375000  0.53125000  1.0
  Nb  Nb5147  1  0.34375000  0.59375000  0.78125000  1.0
  Nb  Nb5148  1  0.34375000  0.84375000  0.03125000  1.0
  Nb  Nb5149  1  0.34375000  0.84375000  0.28125000  1.0
  Nb  Nb5150  1  0.34375000  0.84375000  0.53125000  1.0
  Nb  Nb5151  1  0.34375000  0.84375000  0.78125000  1.0
  Nb  Nb5152  1  0.59375000  0.09375000  0.03125000  1.0
  Nb  Nb5153  1  0.59375000  0.09375000  0.28125000  1.0
  Nb  Nb5154  1  0.59375000  0.09375000  0.53125000  1.0
  Nb  Nb5155  1  0.59375000  0.09375000  0.78125000  1.0
  Nb  Nb5156  1  0.59375000  0.34375000  0.03125000  1.0
  Nb  Nb5157  1  0.59375000  0.34375000  0.28125000  1.0
  Nb  Nb5158  1  0.59375000  0.34375000  0.53125000  1.0
  Nb  Nb5159  1  0.59375000  0.34375000  0.78125000  1.0
  Nb  Nb5160  1  0.59375000  0.59375000  0.03125000  1.0
  Nb  Nb5161  1  0.59375000  0.59375000  0.28125000  1.0
  Nb  Nb5162  1  0.59375000  0.59375000  0.53125000  1.0
  Nb  Nb5163  1  0.59375000  0.59375000  0.78125000  1.0
  Nb  Nb5164  1  0.59375000  0.84375000  0.03125000  1.0
  Nb  Nb5165  1  0.59375000  0.84375000  0.28125000  1.0
  Nb  Nb5166  1  0.59375000  0.84375000  0.53125000  1.0
  Nb  Nb5167  1  0.59375000  0.84375000  0.78125000  1.0
  Nb  Nb5168  1  0.84375000  0.09375000  0.03125000  1.0
  Nb  Nb5169  1  0.84375000  0.09375000  0.28125000  1.0
  Nb  Nb5170  1  0.84375000  0.09375000  0.53125000  1.0
  Nb  Nb5171  1  0.84375000  0.09375000  0.78125000  1.0
  Nb  Nb5172  1  0.84375000  0.34375000  0.03125000  1.0
  Nb  Nb5173  1  0.84375000  0.34375000  0.28125000  1.0
  Nb  Nb5174  1  0.84375000  0.34375000  0.53125000  1.0
  Nb  Nb5175  1  0.84375000  0.34375000  0.78125000  1.0
  Nb  Nb5176  1  0.84375000  0.59375000  0.03125000  1.0
  Nb  Nb5177  1  0.84375000  0.59375000  0.28125000  1.0
  Nb  Nb5178  1  0.84375000  0.59375000  0.53125000  1.0
  Nb  Nb5179  1  0.84375000  0.59375000  0.78125000  1.0
  Nb  Nb5180  1  0.84375000  0.84375000  0.03125000  1.0
  Nb  Nb5181  1  0.84375000  0.84375000  0.28125000  1.0
  Nb  Nb5182  1  0.84375000  0.84375000  0.53125000  1.0
  Nb  Nb5183  1  0.84375000  0.84375000  0.78125000  1.0
  Nb  Nb5184  1  0.21875000  0.21875000  0.03125000  1.0
  Nb  Nb5185  1  0.21875000  0.21875000  0.28125000  1.0
  Nb  Nb5186  1  0.21875000  0.21875000  0.53125000  1.0
  Nb  Nb5187  1  0.21875000  0.21875000  0.78125000  1.0
  Nb  Nb5188  1  0.21875000  0.46875000  0.03125000  1.0
  Nb  Nb5189  1  0.21875000  0.46875000  0.28125000  1.0
  Nb  Nb5190  1  0.21875000  0.46875000  0.53125000  1.0
  Nb  Nb5191  1  0.21875000  0.46875000  0.78125000  1.0
  Nb  Nb5192  1  0.21875000  0.71875000  0.03125000  1.0
  Nb  Nb5193  1  0.21875000  0.71875000  0.28125000  1.0
  Nb  Nb5194  1  0.21875000  0.71875000  0.53125000  1.0
  Nb  Nb5195  1  0.21875000  0.71875000  0.78125000  1.0
  Nb  Nb5196  1  0.21875000  0.96875000  0.03125000  1.0
  Nb  Nb5197  1  0.21875000  0.96875000  0.28125000  1.0
  Nb  Nb5198  1  0.21875000  0.96875000  0.53125000  1.0
  Nb  Nb5199  1  0.21875000  0.96875000  0.78125000  1.0
  Nb  Nb5200  1  0.46875000  0.21875000  0.03125000  1.0
  Nb  Nb5201  1  0.46875000  0.21875000  0.28125000  1.0
  Nb  Nb5202  1  0.46875000  0.21875000  0.53125000  1.0
  Nb  Nb5203  1  0.46875000  0.21875000  0.78125000  1.0
  Nb  Nb5204  1  0.46875000  0.46875000  0.03125000  1.0
  Nb  Nb5205  1  0.46875000  0.46875000  0.28125000  1.0
  Nb  Nb5206  1  0.46875000  0.46875000  0.53125000  1.0
  Nb  Nb5207  1  0.46875000  0.46875000  0.78125000  1.0
  Nb  Nb5208  1  0.46875000  0.71875000  0.03125000  1.0
  Nb  Nb5209  1  0.46875000  0.71875000  0.28125000  1.0
  Nb  Nb5210  1  0.46875000  0.71875000  0.53125000  1.0
  Nb  Nb5211  1  0.46875000  0.71875000  0.78125000  1.0
  Nb  Nb5212  1  0.46875000  0.96875000  0.03125000  1.0
  Nb  Nb5213  1  0.46875000  0.96875000  0.28125000  1.0
  Nb  Nb5214  1  0.46875000  0.96875000  0.53125000  1.0
  Nb  Nb5215  1  0.46875000  0.96875000  0.78125000  1.0
  Nb  Nb5216  1  0.71875000  0.21875000  0.03125000  1.0
  Nb  Nb5217  1  0.71875000  0.21875000  0.28125000  1.0
  Nb  Nb5218  1  0.71875000  0.21875000  0.53125000  1.0
  Nb  Nb5219  1  0.71875000  0.21875000  0.78125000  1.0
  Nb  Nb5220  1  0.71875000  0.46875000  0.03125000  1.0
  Nb  Nb5221  1  0.71875000  0.46875000  0.28125000  1.0
  Nb  Nb5222  1  0.71875000  0.46875000  0.53125000  1.0
  Nb  Nb5223  1  0.71875000  0.46875000  0.78125000  1.0
  Nb  Nb5224  1  0.71875000  0.71875000  0.03125000  1.0
  Nb  Nb5225  1  0.71875000  0.71875000  0.28125000  1.0
  Nb  Nb5226  1  0.71875000  0.71875000  0.53125000  1.0
  Nb  Nb5227  1  0.71875000  0.71875000  0.78125000  1.0
  Nb  Nb5228  1  0.71875000  0.96875000  0.03125000  1.0
  Nb  Nb5229  1  0.71875000  0.96875000  0.28125000  1.0
  Nb  Nb5230  1  0.71875000  0.96875000  0.53125000  1.0
  Nb  Nb5231  1  0.71875000  0.96875000  0.78125000  1.0
  Nb  Nb5232  1  0.96875000  0.21875000  0.03125000  1.0
  Nb  Nb5233  1  0.96875000  0.21875000  0.28125000  1.0
  Nb  Nb5234  1  0.96875000  0.21875000  0.53125000  1.0
  Nb  Nb5235  1  0.96875000  0.21875000  0.78125000  1.0
  Nb  Nb5236  1  0.96875000  0.46875000  0.03125000  1.0
  Nb  Nb5237  1  0.96875000  0.46875000  0.28125000  1.0
  Nb  Nb5238  1  0.96875000  0.46875000  0.53125000  1.0
  Nb  Nb5239  1  0.96875000  0.46875000  0.78125000  1.0
  Nb  Nb5240  1  0.96875000  0.71875000  0.03125000  1.0
  Nb  Nb5241  1  0.96875000  0.71875000  0.28125000  1.0
  Nb  Nb5242  1  0.96875000  0.71875000  0.53125000  1.0
  Nb  Nb5243  1  0.96875000  0.71875000  0.78125000  1.0
  Nb  Nb5244  1  0.96875000  0.96875000  0.03125000  1.0
  Nb  Nb5245  1  0.96875000  0.96875000  0.28125000  1.0
  Nb  Nb5246  1  0.96875000  0.96875000  0.53125000  1.0
  Nb  Nb5247  1  0.96875000  0.96875000  0.78125000  1.0
  Nb  Nb5248  1  0.21875000  0.09375000  0.15625000  1.0
  Nb  Nb5249  1  0.21875000  0.09375000  0.40625000  1.0
  Nb  Nb5250  1  0.21875000  0.09375000  0.65625000  1.0
  Nb  Nb5251  1  0.21875000  0.09375000  0.90625000  1.0
  Nb  Nb5252  1  0.21875000  0.34375000  0.15625000  1.0
  Nb  Nb5253  1  0.21875000  0.34375000  0.40625000  1.0
  Nb  Nb5254  1  0.21875000  0.34375000  0.65625000  1.0
  Nb  Nb5255  1  0.21875000  0.34375000  0.90625000  1.0
  Nb  Nb5256  1  0.21875000  0.59375000  0.15625000  1.0
  Nb  Nb5257  1  0.21875000  0.59375000  0.40625000  1.0
  Nb  Nb5258  1  0.21875000  0.59375000  0.65625000  1.0
  Nb  Nb5259  1  0.21875000  0.59375000  0.90625000  1.0
  Nb  Nb5260  1  0.21875000  0.84375000  0.15625000  1.0
  Nb  Nb5261  1  0.21875000  0.84375000  0.40625000  1.0
  Nb  Nb5262  1  0.21875000  0.84375000  0.65625000  1.0
  Nb  Nb5263  1  0.21875000  0.84375000  0.90625000  1.0
  Nb  Nb5264  1  0.46875000  0.09375000  0.15625000  1.0
  Nb  Nb5265  1  0.46875000  0.09375000  0.40625000  1.0
  Nb  Nb5266  1  0.46875000  0.09375000  0.65625000  1.0
  Nb  Nb5267  1  0.46875000  0.09375000  0.90625000  1.0
  Nb  Nb5268  1  0.46875000  0.34375000  0.15625000  1.0
  Nb  Nb5269  1  0.46875000  0.34375000  0.40625000  1.0
  Nb  Nb5270  1  0.46875000  0.34375000  0.65625000  1.0
  Nb  Nb5271  1  0.46875000  0.34375000  0.90625000  1.0
  Nb  Nb5272  1  0.46875000  0.59375000  0.15625000  1.0
  Nb  Nb5273  1  0.46875000  0.59375000  0.40625000  1.0
  Nb  Nb5274  1  0.46875000  0.59375000  0.65625000  1.0
  Nb  Nb5275  1  0.46875000  0.59375000  0.90625000  1.0
  Nb  Nb5276  1  0.46875000  0.84375000  0.15625000  1.0
  Nb  Nb5277  1  0.46875000  0.84375000  0.40625000  1.0
  Nb  Nb5278  1  0.46875000  0.84375000  0.65625000  1.0
  Nb  Nb5279  1  0.46875000  0.84375000  0.90625000  1.0
  Nb  Nb5280  1  0.71875000  0.09375000  0.15625000  1.0
  Nb  Nb5281  1  0.71875000  0.09375000  0.40625000  1.0
  Nb  Nb5282  1  0.71875000  0.09375000  0.65625000  1.0
  Nb  Nb5283  1  0.71875000  0.09375000  0.90625000  1.0
  Nb  Nb5284  1  0.71875000  0.34375000  0.15625000  1.0
  Nb  Nb5285  1  0.71875000  0.34375000  0.40625000  1.0
  Nb  Nb5286  1  0.71875000  0.34375000  0.65625000  1.0
  Nb  Nb5287  1  0.71875000  0.34375000  0.90625000  1.0
  Nb  Nb5288  1  0.71875000  0.59375000  0.15625000  1.0
  Nb  Nb5289  1  0.71875000  0.59375000  0.40625000  1.0
  Nb  Nb5290  1  0.71875000  0.59375000  0.65625000  1.0
  Nb  Nb5291  1  0.71875000  0.59375000  0.90625000  1.0
  Nb  Nb5292  1  0.71875000  0.84375000  0.15625000  1.0
  Nb  Nb5293  1  0.71875000  0.84375000  0.40625000  1.0
  Nb  Nb5294  1  0.71875000  0.84375000  0.65625000  1.0
  Nb  Nb5295  1  0.71875000  0.84375000  0.90625000  1.0
  Nb  Nb5296  1  0.96875000  0.09375000  0.15625000  1.0
  Nb  Nb5297  1  0.96875000  0.09375000  0.40625000  1.0
  Nb  Nb5298  1  0.96875000  0.09375000  0.65625000  1.0
  Nb  Nb5299  1  0.96875000  0.09375000  0.90625000  1.0
  Nb  Nb5300  1  0.96875000  0.34375000  0.15625000  1.0
  Nb  Nb5301  1  0.96875000  0.34375000  0.40625000  1.0
  Nb  Nb5302  1  0.96875000  0.34375000  0.65625000  1.0
  Nb  Nb5303  1  0.96875000  0.34375000  0.90625000  1.0
  Nb  Nb5304  1  0.96875000  0.59375000  0.15625000  1.0
  Nb  Nb5305  1  0.96875000  0.59375000  0.40625000  1.0
  Nb  Nb5306  1  0.96875000  0.59375000  0.65625000  1.0
  Nb  Nb5307  1  0.96875000  0.59375000  0.90625000  1.0
  Nb  Nb5308  1  0.96875000  0.84375000  0.15625000  1.0
  Nb  Nb5309  1  0.96875000  0.84375000  0.40625000  1.0
  Nb  Nb5310  1  0.96875000  0.84375000  0.65625000  1.0
  Nb  Nb5311  1  0.96875000  0.84375000  0.90625000  1.0
  Nb  Nb5312  1  0.09375000  0.21875000  0.15625000  1.0
  Nb  Nb5313  1  0.09375000  0.21875000  0.40625000  1.0
  Nb  Nb5314  1  0.09375000  0.21875000  0.65625000  1.0
  Nb  Nb5315  1  0.09375000  0.21875000  0.90625000  1.0
  Nb  Nb5316  1  0.09375000  0.46875000  0.15625000  1.0
  Nb  Nb5317  1  0.09375000  0.46875000  0.40625000  1.0
  Nb  Nb5318  1  0.09375000  0.46875000  0.65625000  1.0
  Nb  Nb5319  1  0.09375000  0.46875000  0.90625000  1.0
  Nb  Nb5320  1  0.09375000  0.71875000  0.15625000  1.0
  Nb  Nb5321  1  0.09375000  0.71875000  0.40625000  1.0
  Nb  Nb5322  1  0.09375000  0.71875000  0.65625000  1.0
  Nb  Nb5323  1  0.09375000  0.71875000  0.90625000  1.0
  Nb  Nb5324  1  0.09375000  0.96875000  0.15625000  1.0
  Nb  Nb5325  1  0.09375000  0.96875000  0.40625000  1.0
  Nb  Nb5326  1  0.09375000  0.96875000  0.65625000  1.0
  Nb  Nb5327  1  0.09375000  0.96875000  0.90625000  1.0
  Nb  Nb5328  1  0.34375000  0.21875000  0.15625000  1.0
  Nb  Nb5329  1  0.34375000  0.21875000  0.40625000  1.0
  Nb  Nb5330  1  0.34375000  0.21875000  0.65625000  1.0
  Nb  Nb5331  1  0.34375000  0.21875000  0.90625000  1.0
  Nb  Nb5332  1  0.34375000  0.46875000  0.15625000  1.0
  Nb  Nb5333  1  0.34375000  0.46875000  0.40625000  1.0
  Nb  Nb5334  1  0.34375000  0.46875000  0.65625000  1.0
  Nb  Nb5335  1  0.34375000  0.46875000  0.90625000  1.0
  Nb  Nb5336  1  0.34375000  0.71875000  0.15625000  1.0
  Nb  Nb5337  1  0.34375000  0.71875000  0.40625000  1.0
  Nb  Nb5338  1  0.34375000  0.71875000  0.65625000  1.0
  Nb  Nb5339  1  0.34375000  0.71875000  0.90625000  1.0
  Nb  Nb5340  1  0.34375000  0.96875000  0.15625000  1.0
  Nb  Nb5341  1  0.34375000  0.96875000  0.40625000  1.0
  Nb  Nb5342  1  0.34375000  0.96875000  0.65625000  1.0
  Nb  Nb5343  1  0.34375000  0.96875000  0.90625000  1.0
  Nb  Nb5344  1  0.59375000  0.21875000  0.15625000  1.0
  Nb  Nb5345  1  0.59375000  0.21875000  0.40625000  1.0
  Nb  Nb5346  1  0.59375000  0.21875000  0.65625000  1.0
  Nb  Nb5347  1  0.59375000  0.21875000  0.90625000  1.0
  Nb  Nb5348  1  0.59375000  0.46875000  0.15625000  1.0
  Nb  Nb5349  1  0.59375000  0.46875000  0.40625000  1.0
  Nb  Nb5350  1  0.59375000  0.46875000  0.65625000  1.0
  Nb  Nb5351  1  0.59375000  0.46875000  0.90625000  1.0
  Nb  Nb5352  1  0.59375000  0.71875000  0.15625000  1.0
  Nb  Nb5353  1  0.59375000  0.71875000  0.40625000  1.0
  Nb  Nb5354  1  0.59375000  0.71875000  0.65625000  1.0
  Nb  Nb5355  1  0.59375000  0.71875000  0.90625000  1.0
  Nb  Nb5356  1  0.59375000  0.96875000  0.15625000  1.0
  Nb  Nb5357  1  0.59375000  0.96875000  0.40625000  1.0
  Nb  Nb5358  1  0.59375000  0.96875000  0.65625000  1.0
  Nb  Nb5359  1  0.59375000  0.96875000  0.90625000  1.0
  Nb  Nb5360  1  0.84375000  0.21875000  0.15625000  1.0
  Nb  Nb5361  1  0.84375000  0.21875000  0.40625000  1.0
  Nb  Nb5362  1  0.84375000  0.21875000  0.65625000  1.0
  Nb  Nb5363  1  0.84375000  0.21875000  0.90625000  1.0
  Nb  Nb5364  1  0.84375000  0.46875000  0.15625000  1.0
  Nb  Nb5365  1  0.84375000  0.46875000  0.40625000  1.0
  Nb  Nb5366  1  0.84375000  0.46875000  0.65625000  1.0
  Nb  Nb5367  1  0.84375000  0.46875000  0.90625000  1.0
  Nb  Nb5368  1  0.84375000  0.71875000  0.15625000  1.0
  Nb  Nb5369  1  0.84375000  0.71875000  0.40625000  1.0
  Nb  Nb5370  1  0.84375000  0.71875000  0.65625000  1.0
  Nb  Nb5371  1  0.84375000  0.71875000  0.90625000  1.0
  Nb  Nb5372  1  0.84375000  0.96875000  0.15625000  1.0
  Nb  Nb5373  1  0.84375000  0.96875000  0.40625000  1.0
  Nb  Nb5374  1  0.84375000  0.96875000  0.65625000  1.0
  Nb  Nb5375  1  0.84375000  0.96875000  0.90625000  1.0
  Nb  Nb5376  1  0.09375000  0.09375000  0.15625000  1.0
  Nb  Nb5377  1  0.09375000  0.09375000  0.40625000  1.0
  Nb  Nb5378  1  0.09375000  0.09375000  0.65625000  1.0
  Nb  Nb5379  1  0.09375000  0.09375000  0.90625000  1.0
  Nb  Nb5380  1  0.09375000  0.34375000  0.15625000  1.0
  Nb  Nb5381  1  0.09375000  0.34375000  0.40625000  1.0
  Nb  Nb5382  1  0.09375000  0.34375000  0.65625000  1.0
  Nb  Nb5383  1  0.09375000  0.34375000  0.90625000  1.0
  Nb  Nb5384  1  0.09375000  0.59375000  0.15625000  1.0
  Nb  Nb5385  1  0.09375000  0.59375000  0.40625000  1.0
  Nb  Nb5386  1  0.09375000  0.59375000  0.65625000  1.0
  Nb  Nb5387  1  0.09375000  0.59375000  0.90625000  1.0
  Nb  Nb5388  1  0.09375000  0.84375000  0.15625000  1.0
  Nb  Nb5389  1  0.09375000  0.84375000  0.40625000  1.0
  Nb  Nb5390  1  0.09375000  0.84375000  0.65625000  1.0
  Nb  Nb5391  1  0.09375000  0.84375000  0.90625000  1.0
  Nb  Nb5392  1  0.34375000  0.09375000  0.15625000  1.0
  Nb  Nb5393  1  0.34375000  0.09375000  0.40625000  1.0
  Nb  Nb5394  1  0.34375000  0.09375000  0.65625000  1.0
  Nb  Nb5395  1  0.34375000  0.09375000  0.90625000  1.0
  Nb  Nb5396  1  0.34375000  0.34375000  0.15625000  1.0
  Nb  Nb5397  1  0.34375000  0.34375000  0.40625000  1.0
  Nb  Nb5398  1  0.34375000  0.34375000  0.65625000  1.0
  Nb  Nb5399  1  0.34375000  0.34375000  0.90625000  1.0
  Nb  Nb5400  1  0.34375000  0.59375000  0.15625000  1.0
  Nb  Nb5401  1  0.34375000  0.59375000  0.40625000  1.0
  Nb  Nb5402  1  0.34375000  0.59375000  0.65625000  1.0
  Nb  Nb5403  1  0.34375000  0.59375000  0.90625000  1.0
  Nb  Nb5404  1  0.34375000  0.84375000  0.15625000  1.0
  Nb  Nb5405  1  0.34375000  0.84375000  0.40625000  1.0
  Nb  Nb5406  1  0.34375000  0.84375000  0.65625000  1.0
  Nb  Nb5407  1  0.34375000  0.84375000  0.90625000  1.0
  Nb  Nb5408  1  0.59375000  0.09375000  0.15625000  1.0
  Nb  Nb5409  1  0.59375000  0.09375000  0.40625000  1.0
  Nb  Nb5410  1  0.59375000  0.09375000  0.65625000  1.0
  Nb  Nb5411  1  0.59375000  0.09375000  0.90625000  1.0
  Nb  Nb5412  1  0.59375000  0.34375000  0.15625000  1.0
  Nb  Nb5413  1  0.59375000  0.34375000  0.40625000  1.0
  Nb  Nb5414  1  0.59375000  0.34375000  0.65625000  1.0
  Nb  Nb5415  1  0.59375000  0.34375000  0.90625000  1.0
  Nb  Nb5416  1  0.59375000  0.59375000  0.15625000  1.0
  Nb  Nb5417  1  0.59375000  0.59375000  0.40625000  1.0
  Nb  Nb5418  1  0.59375000  0.59375000  0.65625000  1.0
  Nb  Nb5419  1  0.59375000  0.59375000  0.90625000  1.0
  Nb  Nb5420  1  0.59375000  0.84375000  0.15625000  1.0
  Nb  Nb5421  1  0.59375000  0.84375000  0.40625000  1.0
  Nb  Nb5422  1  0.59375000  0.84375000  0.65625000  1.0
  Nb  Nb5423  1  0.59375000  0.84375000  0.90625000  1.0
  Nb  Nb5424  1  0.84375000  0.09375000  0.15625000  1.0
  Nb  Nb5425  1  0.84375000  0.09375000  0.40625000  1.0
  Nb  Nb5426  1  0.84375000  0.09375000  0.65625000  1.0
  Nb  Nb5427  1  0.84375000  0.09375000  0.90625000  1.0
  Nb  Nb5428  1  0.84375000  0.34375000  0.15625000  1.0
  Nb  Nb5429  1  0.84375000  0.34375000  0.40625000  1.0
  Nb  Nb5430  1  0.84375000  0.34375000  0.65625000  1.0
  Nb  Nb5431  1  0.84375000  0.34375000  0.90625000  1.0
  Nb  Nb5432  1  0.84375000  0.59375000  0.15625000  1.0
  Nb  Nb5433  1  0.84375000  0.59375000  0.40625000  1.0
  Nb  Nb5434  1  0.84375000  0.59375000  0.65625000  1.0
  Nb  Nb5435  1  0.84375000  0.59375000  0.90625000  1.0
  Nb  Nb5436  1  0.84375000  0.84375000  0.15625000  1.0
  Nb  Nb5437  1  0.84375000  0.84375000  0.40625000  1.0
  Nb  Nb5438  1  0.84375000  0.84375000  0.65625000  1.0
  Nb  Nb5439  1  0.84375000  0.84375000  0.90625000  1.0
  Nb  Nb5440  1  0.21875000  0.21875000  0.15625000  1.0
  Nb  Nb5441  1  0.21875000  0.21875000  0.40625000  1.0
  Nb  Nb5442  1  0.21875000  0.21875000  0.65625000  1.0
  Nb  Nb5443  1  0.21875000  0.21875000  0.90625000  1.0
  Nb  Nb5444  1  0.21875000  0.46875000  0.15625000  1.0
  Nb  Nb5445  1  0.21875000  0.46875000  0.40625000  1.0
  Nb  Nb5446  1  0.21875000  0.46875000  0.65625000  1.0
  Nb  Nb5447  1  0.21875000  0.46875000  0.90625000  1.0
  Nb  Nb5448  1  0.21875000  0.71875000  0.15625000  1.0
  Nb  Nb5449  1  0.21875000  0.71875000  0.40625000  1.0
  Nb  Nb5450  1  0.21875000  0.71875000  0.65625000  1.0
  Nb  Nb5451  1  0.21875000  0.71875000  0.90625000  1.0
  Nb  Nb5452  1  0.21875000  0.96875000  0.15625000  1.0
  Nb  Nb5453  1  0.21875000  0.96875000  0.40625000  1.0
  Nb  Nb5454  1  0.21875000  0.96875000  0.65625000  1.0
  Nb  Nb5455  1  0.21875000  0.96875000  0.90625000  1.0
  Nb  Nb5456  1  0.46875000  0.21875000  0.15625000  1.0
  Nb  Nb5457  1  0.46875000  0.21875000  0.40625000  1.0
  Nb  Nb5458  1  0.46875000  0.21875000  0.65625000  1.0
  Nb  Nb5459  1  0.46875000  0.21875000  0.90625000  1.0
  Nb  Nb5460  1  0.46875000  0.46875000  0.15625000  1.0
  Nb  Nb5461  1  0.46875000  0.46875000  0.40625000  1.0
  Nb  Nb5462  1  0.46875000  0.46875000  0.65625000  1.0
  Nb  Nb5463  1  0.46875000  0.46875000  0.90625000  1.0
  Nb  Nb5464  1  0.46875000  0.71875000  0.15625000  1.0
  Nb  Nb5465  1  0.46875000  0.71875000  0.40625000  1.0
  Nb  Nb5466  1  0.46875000  0.71875000  0.65625000  1.0
  Nb  Nb5467  1  0.46875000  0.71875000  0.90625000  1.0
  Nb  Nb5468  1  0.46875000  0.96875000  0.15625000  1.0
  Nb  Nb5469  1  0.46875000  0.96875000  0.40625000  1.0
  Nb  Nb5470  1  0.46875000  0.96875000  0.65625000  1.0
  Nb  Nb5471  1  0.46875000  0.96875000  0.90625000  1.0
  Nb  Nb5472  1  0.71875000  0.21875000  0.15625000  1.0
  Nb  Nb5473  1  0.71875000  0.21875000  0.40625000  1.0
  Nb  Nb5474  1  0.71875000  0.21875000  0.65625000  1.0
  Nb  Nb5475  1  0.71875000  0.21875000  0.90625000  1.0
  Nb  Nb5476  1  0.71875000  0.46875000  0.15625000  1.0
  Nb  Nb5477  1  0.71875000  0.46875000  0.40625000  1.0
  Nb  Nb5478  1  0.71875000  0.46875000  0.65625000  1.0
  Nb  Nb5479  1  0.71875000  0.46875000  0.90625000  1.0
  Nb  Nb5480  1  0.71875000  0.71875000  0.15625000  1.0
  Nb  Nb5481  1  0.71875000  0.71875000  0.40625000  1.0
  Nb  Nb5482  1  0.71875000  0.71875000  0.65625000  1.0
  Nb  Nb5483  1  0.71875000  0.71875000  0.90625000  1.0
  Nb  Nb5484  1  0.71875000  0.96875000  0.15625000  1.0
  Nb  Nb5485  1  0.71875000  0.96875000  0.40625000  1.0
  Nb  Nb5486  1  0.71875000  0.96875000  0.65625000  1.0
  Nb  Nb5487  1  0.71875000  0.96875000  0.90625000  1.0
  Nb  Nb5488  1  0.96875000  0.21875000  0.15625000  1.0
  Nb  Nb5489  1  0.96875000  0.21875000  0.40625000  1.0
  Nb  Nb5490  1  0.96875000  0.21875000  0.65625000  1.0
  Nb  Nb5491  1  0.96875000  0.21875000  0.90625000  1.0
  Nb  Nb5492  1  0.96875000  0.46875000  0.15625000  1.0
  Nb  Nb5493  1  0.96875000  0.46875000  0.40625000  1.0
  Nb  Nb5494  1  0.96875000  0.46875000  0.65625000  1.0
  Nb  Nb5495  1  0.96875000  0.46875000  0.90625000  1.0
  Nb  Nb5496  1  0.96875000  0.71875000  0.15625000  1.0
  Nb  Nb5497  1  0.96875000  0.71875000  0.40625000  1.0
  Nb  Nb5498  1  0.96875000  0.71875000  0.65625000  1.0
  Nb  Nb5499  1  0.96875000  0.71875000  0.90625000  1.0
  Nb  Nb5500  1  0.96875000  0.96875000  0.15625000  1.0
  Nb  Nb5501  1  0.96875000  0.96875000  0.40625000  1.0
  Nb  Nb5502  1  0.96875000  0.96875000  0.65625000  1.0
  Nb  Nb5503  1  0.96875000  0.96875000  0.90625000  1.0
  Nb  Nb5504  1  0.21875000  0.09375000  0.03125000  1.0
  Nb  Nb5505  1  0.21875000  0.09375000  0.28125000  1.0
  Nb  Nb5506  1  0.21875000  0.09375000  0.53125000  1.0
  Nb  Nb5507  1  0.21875000  0.09375000  0.78125000  1.0
  Nb  Nb5508  1  0.21875000  0.34375000  0.03125000  1.0
  Nb  Nb5509  1  0.21875000  0.34375000  0.28125000  1.0
  Nb  Nb5510  1  0.21875000  0.34375000  0.53125000  1.0
  Nb  Nb5511  1  0.21875000  0.34375000  0.78125000  1.0
  Nb  Nb5512  1  0.21875000  0.59375000  0.03125000  1.0
  Nb  Nb5513  1  0.21875000  0.59375000  0.28125000  1.0
  Nb  Nb5514  1  0.21875000  0.59375000  0.53125000  1.0
  Nb  Nb5515  1  0.21875000  0.59375000  0.78125000  1.0
  Nb  Nb5516  1  0.21875000  0.84375000  0.03125000  1.0
  Nb  Nb5517  1  0.21875000  0.84375000  0.28125000  1.0
  Nb  Nb5518  1  0.21875000  0.84375000  0.53125000  1.0
  Nb  Nb5519  1  0.21875000  0.84375000  0.78125000  1.0
  Nb  Nb5520  1  0.46875000  0.09375000  0.03125000  1.0
  Nb  Nb5521  1  0.46875000  0.09375000  0.28125000  1.0
  Nb  Nb5522  1  0.46875000  0.09375000  0.53125000  1.0
  Nb  Nb5523  1  0.46875000  0.09375000  0.78125000  1.0
  Nb  Nb5524  1  0.46875000  0.34375000  0.03125000  1.0
  Nb  Nb5525  1  0.46875000  0.34375000  0.28125000  1.0
  Nb  Nb5526  1  0.46875000  0.34375000  0.53125000  1.0
  Nb  Nb5527  1  0.46875000  0.34375000  0.78125000  1.0
  Nb  Nb5528  1  0.46875000  0.59375000  0.03125000  1.0
  Nb  Nb5529  1  0.46875000  0.59375000  0.28125000  1.0
  Nb  Nb5530  1  0.46875000  0.59375000  0.53125000  1.0
  Nb  Nb5531  1  0.46875000  0.59375000  0.78125000  1.0
  Nb  Nb5532  1  0.46875000  0.84375000  0.03125000  1.0
  Nb  Nb5533  1  0.46875000  0.84375000  0.28125000  1.0
  Nb  Nb5534  1  0.46875000  0.84375000  0.53125000  1.0
  Nb  Nb5535  1  0.46875000  0.84375000  0.78125000  1.0
  Nb  Nb5536  1  0.71875000  0.09375000  0.03125000  1.0
  Nb  Nb5537  1  0.71875000  0.09375000  0.28125000  1.0
  Nb  Nb5538  1  0.71875000  0.09375000  0.53125000  1.0
  Nb  Nb5539  1  0.71875000  0.09375000  0.78125000  1.0
  Nb  Nb5540  1  0.71875000  0.34375000  0.03125000  1.0
  Nb  Nb5541  1  0.71875000  0.34375000  0.28125000  1.0
  Nb  Nb5542  1  0.71875000  0.34375000  0.53125000  1.0
  Nb  Nb5543  1  0.71875000  0.34375000  0.78125000  1.0
  Nb  Nb5544  1  0.71875000  0.59375000  0.03125000  1.0
  Nb  Nb5545  1  0.71875000  0.59375000  0.28125000  1.0
  Nb  Nb5546  1  0.71875000  0.59375000  0.53125000  1.0
  Nb  Nb5547  1  0.71875000  0.59375000  0.78125000  1.0
  Nb  Nb5548  1  0.71875000  0.84375000  0.03125000  1.0
  Nb  Nb5549  1  0.71875000  0.84375000  0.28125000  1.0
  Nb  Nb5550  1  0.71875000  0.84375000  0.53125000  1.0
  Nb  Nb5551  1  0.71875000  0.84375000  0.78125000  1.0
  Nb  Nb5552  1  0.96875000  0.09375000  0.03125000  1.0
  Nb  Nb5553  1  0.96875000  0.09375000  0.28125000  1.0
  Nb  Nb5554  1  0.96875000  0.09375000  0.53125000  1.0
  Nb  Nb5555  1  0.96875000  0.09375000  0.78125000  1.0
  Nb  Nb5556  1  0.96875000  0.34375000  0.03125000  1.0
  Nb  Nb5557  1  0.96875000  0.34375000  0.28125000  1.0
  Nb  Nb5558  1  0.96875000  0.34375000  0.53125000  1.0
  Nb  Nb5559  1  0.96875000  0.34375000  0.78125000  1.0
  Nb  Nb5560  1  0.96875000  0.59375000  0.03125000  1.0
  Nb  Nb5561  1  0.96875000  0.59375000  0.28125000  1.0
  Nb  Nb5562  1  0.96875000  0.59375000  0.53125000  1.0
  Nb  Nb5563  1  0.96875000  0.59375000  0.78125000  1.0
  Nb  Nb5564  1  0.96875000  0.84375000  0.03125000  1.0
  Nb  Nb5565  1  0.96875000  0.84375000  0.28125000  1.0
  Nb  Nb5566  1  0.96875000  0.84375000  0.53125000  1.0
  Nb  Nb5567  1  0.96875000  0.84375000  0.78125000  1.0
  Nb  Nb5568  1  0.09375000  0.21875000  0.03125000  1.0
  Nb  Nb5569  1  0.09375000  0.21875000  0.28125000  1.0
  Nb  Nb5570  1  0.09375000  0.21875000  0.53125000  1.0
  Nb  Nb5571  1  0.09375000  0.21875000  0.78125000  1.0
  Nb  Nb5572  1  0.09375000  0.46875000  0.03125000  1.0
  Nb  Nb5573  1  0.09375000  0.46875000  0.28125000  1.0
  Nb  Nb5574  1  0.09375000  0.46875000  0.53125000  1.0
  Nb  Nb5575  1  0.09375000  0.46875000  0.78125000  1.0
  Nb  Nb5576  1  0.09375000  0.71875000  0.03125000  1.0
  Nb  Nb5577  1  0.09375000  0.71875000  0.28125000  1.0
  Nb  Nb5578  1  0.09375000  0.71875000  0.53125000  1.0
  Nb  Nb5579  1  0.09375000  0.71875000  0.78125000  1.0
  Nb  Nb5580  1  0.09375000  0.96875000  0.03125000  1.0
  Nb  Nb5581  1  0.09375000  0.96875000  0.28125000  1.0
  Nb  Nb5582  1  0.09375000  0.96875000  0.53125000  1.0
  Nb  Nb5583  1  0.09375000  0.96875000  0.78125000  1.0
  Nb  Nb5584  1  0.34375000  0.21875000  0.03125000  1.0
  Nb  Nb5585  1  0.34375000  0.21875000  0.28125000  1.0
  Nb  Nb5586  1  0.34375000  0.21875000  0.53125000  1.0
  Nb  Nb5587  1  0.34375000  0.21875000  0.78125000  1.0
  Nb  Nb5588  1  0.34375000  0.46875000  0.03125000  1.0
  Nb  Nb5589  1  0.34375000  0.46875000  0.28125000  1.0
  Nb  Nb5590  1  0.34375000  0.46875000  0.53125000  1.0
  Nb  Nb5591  1  0.34375000  0.46875000  0.78125000  1.0
  Nb  Nb5592  1  0.34375000  0.71875000  0.03125000  1.0
  Nb  Nb5593  1  0.34375000  0.71875000  0.28125000  1.0
  Nb  Nb5594  1  0.34375000  0.71875000  0.53125000  1.0
  Nb  Nb5595  1  0.34375000  0.71875000  0.78125000  1.0
  Nb  Nb5596  1  0.34375000  0.96875000  0.03125000  1.0
  Nb  Nb5597  1  0.34375000  0.96875000  0.28125000  1.0
  Nb  Nb5598  1  0.34375000  0.96875000  0.53125000  1.0
  Nb  Nb5599  1  0.34375000  0.96875000  0.78125000  1.0
  Nb  Nb5600  1  0.59375000  0.21875000  0.03125000  1.0
  Nb  Nb5601  1  0.59375000  0.21875000  0.28125000  1.0
  Nb  Nb5602  1  0.59375000  0.21875000  0.53125000  1.0
  Nb  Nb5603  1  0.59375000  0.21875000  0.78125000  1.0
  Nb  Nb5604  1  0.59375000  0.46875000  0.03125000  1.0
  Nb  Nb5605  1  0.59375000  0.46875000  0.28125000  1.0
  Nb  Nb5606  1  0.59375000  0.46875000  0.53125000  1.0
  Nb  Nb5607  1  0.59375000  0.46875000  0.78125000  1.0
  Nb  Nb5608  1  0.59375000  0.71875000  0.03125000  1.0
  Nb  Nb5609  1  0.59375000  0.71875000  0.28125000  1.0
  Nb  Nb5610  1  0.59375000  0.71875000  0.53125000  1.0
  Nb  Nb5611  1  0.59375000  0.71875000  0.78125000  1.0
  Nb  Nb5612  1  0.59375000  0.96875000  0.03125000  1.0
  Nb  Nb5613  1  0.59375000  0.96875000  0.28125000  1.0
  Nb  Nb5614  1  0.59375000  0.96875000  0.53125000  1.0
  Nb  Nb5615  1  0.59375000  0.96875000  0.78125000  1.0
  Nb  Nb5616  1  0.84375000  0.21875000  0.03125000  1.0
  Nb  Nb5617  1  0.84375000  0.21875000  0.28125000  1.0
  Nb  Nb5618  1  0.84375000  0.21875000  0.53125000  1.0
  Nb  Nb5619  1  0.84375000  0.21875000  0.78125000  1.0
  Nb  Nb5620  1  0.84375000  0.46875000  0.03125000  1.0
  Nb  Nb5621  1  0.84375000  0.46875000  0.28125000  1.0
  Nb  Nb5622  1  0.84375000  0.46875000  0.53125000  1.0
  Nb  Nb5623  1  0.84375000  0.46875000  0.78125000  1.0
  Nb  Nb5624  1  0.84375000  0.71875000  0.03125000  1.0
  Nb  Nb5625  1  0.84375000  0.71875000  0.28125000  1.0
  Nb  Nb5626  1  0.84375000  0.71875000  0.53125000  1.0
  Nb  Nb5627  1  0.84375000  0.71875000  0.78125000  1.0
  Nb  Nb5628  1  0.84375000  0.96875000  0.03125000  1.0
  Nb  Nb5629  1  0.84375000  0.96875000  0.28125000  1.0
  Nb  Nb5630  1  0.84375000  0.96875000  0.53125000  1.0
  Nb  Nb5631  1  0.84375000  0.96875000  0.78125000  1.0
  Nb  Nb5632  1  0.09375000  0.03125000  0.09375000  1.0
  Nb  Nb5633  1  0.09375000  0.03125000  0.34375000  1.0
  Nb  Nb5634  1  0.09375000  0.03125000  0.59375000  1.0
  Nb  Nb5635  1  0.09375000  0.03125000  0.84375000  1.0
  Nb  Nb5636  1  0.09375000  0.28125000  0.09375000  1.0
  Nb  Nb5637  1  0.09375000  0.28125000  0.34375000  1.0
  Nb  Nb5638  1  0.09375000  0.28125000  0.59375000  1.0
  Nb  Nb5639  1  0.09375000  0.28125000  0.84375000  1.0
  Nb  Nb5640  1  0.09375000  0.53125000  0.09375000  1.0
  Nb  Nb5641  1  0.09375000  0.53125000  0.34375000  1.0
  Nb  Nb5642  1  0.09375000  0.53125000  0.59375000  1.0
  Nb  Nb5643  1  0.09375000  0.53125000  0.84375000  1.0
  Nb  Nb5644  1  0.09375000  0.78125000  0.09375000  1.0
  Nb  Nb5645  1  0.09375000  0.78125000  0.34375000  1.0
  Nb  Nb5646  1  0.09375000  0.78125000  0.59375000  1.0
  Nb  Nb5647  1  0.09375000  0.78125000  0.84375000  1.0
  Nb  Nb5648  1  0.34375000  0.03125000  0.09375000  1.0
  Nb  Nb5649  1  0.34375000  0.03125000  0.34375000  1.0
  Nb  Nb5650  1  0.34375000  0.03125000  0.59375000  1.0
  Nb  Nb5651  1  0.34375000  0.03125000  0.84375000  1.0
  Nb  Nb5652  1  0.34375000  0.28125000  0.09375000  1.0
  Nb  Nb5653  1  0.34375000  0.28125000  0.34375000  1.0
  Nb  Nb5654  1  0.34375000  0.28125000  0.59375000  1.0
  Nb  Nb5655  1  0.34375000  0.28125000  0.84375000  1.0
  Nb  Nb5656  1  0.34375000  0.53125000  0.09375000  1.0
  Nb  Nb5657  1  0.34375000  0.53125000  0.34375000  1.0
  Nb  Nb5658  1  0.34375000  0.53125000  0.59375000  1.0
  Nb  Nb5659  1  0.34375000  0.53125000  0.84375000  1.0
  Nb  Nb5660  1  0.34375000  0.78125000  0.09375000  1.0
  Nb  Nb5661  1  0.34375000  0.78125000  0.34375000  1.0
  Nb  Nb5662  1  0.34375000  0.78125000  0.59375000  1.0
  Nb  Nb5663  1  0.34375000  0.78125000  0.84375000  1.0
  Nb  Nb5664  1  0.59375000  0.03125000  0.09375000  1.0
  Nb  Nb5665  1  0.59375000  0.03125000  0.34375000  1.0
  Nb  Nb5666  1  0.59375000  0.03125000  0.59375000  1.0
  Nb  Nb5667  1  0.59375000  0.03125000  0.84375000  1.0
  Nb  Nb5668  1  0.59375000  0.28125000  0.09375000  1.0
  Nb  Nb5669  1  0.59375000  0.28125000  0.34375000  1.0
  Nb  Nb5670  1  0.59375000  0.28125000  0.59375000  1.0
  Nb  Nb5671  1  0.59375000  0.28125000  0.84375000  1.0
  Nb  Nb5672  1  0.59375000  0.53125000  0.09375000  1.0
  Nb  Nb5673  1  0.59375000  0.53125000  0.34375000  1.0
  Nb  Nb5674  1  0.59375000  0.53125000  0.59375000  1.0
  Nb  Nb5675  1  0.59375000  0.53125000  0.84375000  1.0
  Nb  Nb5676  1  0.59375000  0.78125000  0.09375000  1.0
  Nb  Nb5677  1  0.59375000  0.78125000  0.34375000  1.0
  Nb  Nb5678  1  0.59375000  0.78125000  0.59375000  1.0
  Nb  Nb5679  1  0.59375000  0.78125000  0.84375000  1.0
  Nb  Nb5680  1  0.84375000  0.03125000  0.09375000  1.0
  Nb  Nb5681  1  0.84375000  0.03125000  0.34375000  1.0
  Nb  Nb5682  1  0.84375000  0.03125000  0.59375000  1.0
  Nb  Nb5683  1  0.84375000  0.03125000  0.84375000  1.0
  Nb  Nb5684  1  0.84375000  0.28125000  0.09375000  1.0
  Nb  Nb5685  1  0.84375000  0.28125000  0.34375000  1.0
  Nb  Nb5686  1  0.84375000  0.28125000  0.59375000  1.0
  Nb  Nb5687  1  0.84375000  0.28125000  0.84375000  1.0
  Nb  Nb5688  1  0.84375000  0.53125000  0.09375000  1.0
  Nb  Nb5689  1  0.84375000  0.53125000  0.34375000  1.0
  Nb  Nb5690  1  0.84375000  0.53125000  0.59375000  1.0
  Nb  Nb5691  1  0.84375000  0.53125000  0.84375000  1.0
  Nb  Nb5692  1  0.84375000  0.78125000  0.09375000  1.0
  Nb  Nb5693  1  0.84375000  0.78125000  0.34375000  1.0
  Nb  Nb5694  1  0.84375000  0.78125000  0.59375000  1.0
  Nb  Nb5695  1  0.84375000  0.78125000  0.84375000  1.0
  Nb  Nb5696  1  0.21875000  0.15625000  0.09375000  1.0
  Nb  Nb5697  1  0.21875000  0.15625000  0.34375000  1.0
  Nb  Nb5698  1  0.21875000  0.15625000  0.59375000  1.0
  Nb  Nb5699  1  0.21875000  0.15625000  0.84375000  1.0
  Nb  Nb5700  1  0.21875000  0.40625000  0.09375000  1.0
  Nb  Nb5701  1  0.21875000  0.40625000  0.34375000  1.0
  Nb  Nb5702  1  0.21875000  0.40625000  0.59375000  1.0
  Nb  Nb5703  1  0.21875000  0.40625000  0.84375000  1.0
  Nb  Nb5704  1  0.21875000  0.65625000  0.09375000  1.0
  Nb  Nb5705  1  0.21875000  0.65625000  0.34375000  1.0
  Nb  Nb5706  1  0.21875000  0.65625000  0.59375000  1.0
  Nb  Nb5707  1  0.21875000  0.65625000  0.84375000  1.0
  Nb  Nb5708  1  0.21875000  0.90625000  0.09375000  1.0
  Nb  Nb5709  1  0.21875000  0.90625000  0.34375000  1.0
  Nb  Nb5710  1  0.21875000  0.90625000  0.59375000  1.0
  Nb  Nb5711  1  0.21875000  0.90625000  0.84375000  1.0
  Nb  Nb5712  1  0.46875000  0.15625000  0.09375000  1.0
  Nb  Nb5713  1  0.46875000  0.15625000  0.34375000  1.0
  Nb  Nb5714  1  0.46875000  0.15625000  0.59375000  1.0
  Nb  Nb5715  1  0.46875000  0.15625000  0.84375000  1.0
  Nb  Nb5716  1  0.46875000  0.40625000  0.09375000  1.0
  Nb  Nb5717  1  0.46875000  0.40625000  0.34375000  1.0
  Nb  Nb5718  1  0.46875000  0.40625000  0.59375000  1.0
  Nb  Nb5719  1  0.46875000  0.40625000  0.84375000  1.0
  Nb  Nb5720  1  0.46875000  0.65625000  0.09375000  1.0
  Nb  Nb5721  1  0.46875000  0.65625000  0.34375000  1.0
  Nb  Nb5722  1  0.46875000  0.65625000  0.59375000  1.0
  Nb  Nb5723  1  0.46875000  0.65625000  0.84375000  1.0
  Nb  Nb5724  1  0.46875000  0.90625000  0.09375000  1.0
  Nb  Nb5725  1  0.46875000  0.90625000  0.34375000  1.0
  Nb  Nb5726  1  0.46875000  0.90625000  0.59375000  1.0
  Nb  Nb5727  1  0.46875000  0.90625000  0.84375000  1.0
  Nb  Nb5728  1  0.71875000  0.15625000  0.09375000  1.0
  Nb  Nb5729  1  0.71875000  0.15625000  0.34375000  1.0
  Nb  Nb5730  1  0.71875000  0.15625000  0.59375000  1.0
  Nb  Nb5731  1  0.71875000  0.15625000  0.84375000  1.0
  Nb  Nb5732  1  0.71875000  0.40625000  0.09375000  1.0
  Nb  Nb5733  1  0.71875000  0.40625000  0.34375000  1.0
  Nb  Nb5734  1  0.71875000  0.40625000  0.59375000  1.0
  Nb  Nb5735  1  0.71875000  0.40625000  0.84375000  1.0
  Nb  Nb5736  1  0.71875000  0.65625000  0.09375000  1.0
  Nb  Nb5737  1  0.71875000  0.65625000  0.34375000  1.0
  Nb  Nb5738  1  0.71875000  0.65625000  0.59375000  1.0
  Nb  Nb5739  1  0.71875000  0.65625000  0.84375000  1.0
  Nb  Nb5740  1  0.71875000  0.90625000  0.09375000  1.0
  Nb  Nb5741  1  0.71875000  0.90625000  0.34375000  1.0
  Nb  Nb5742  1  0.71875000  0.90625000  0.59375000  1.0
  Nb  Nb5743  1  0.71875000  0.90625000  0.84375000  1.0
  Nb  Nb5744  1  0.96875000  0.15625000  0.09375000  1.0
  Nb  Nb5745  1  0.96875000  0.15625000  0.34375000  1.0
  Nb  Nb5746  1  0.96875000  0.15625000  0.59375000  1.0
  Nb  Nb5747  1  0.96875000  0.15625000  0.84375000  1.0
  Nb  Nb5748  1  0.96875000  0.40625000  0.09375000  1.0
  Nb  Nb5749  1  0.96875000  0.40625000  0.34375000  1.0
  Nb  Nb5750  1  0.96875000  0.40625000  0.59375000  1.0
  Nb  Nb5751  1  0.96875000  0.40625000  0.84375000  1.0
  Nb  Nb5752  1  0.96875000  0.65625000  0.09375000  1.0
  Nb  Nb5753  1  0.96875000  0.65625000  0.34375000  1.0
  Nb  Nb5754  1  0.96875000  0.65625000  0.59375000  1.0
  Nb  Nb5755  1  0.96875000  0.65625000  0.84375000  1.0
  Nb  Nb5756  1  0.96875000  0.90625000  0.09375000  1.0
  Nb  Nb5757  1  0.96875000  0.90625000  0.34375000  1.0
  Nb  Nb5758  1  0.96875000  0.90625000  0.59375000  1.0
  Nb  Nb5759  1  0.96875000  0.90625000  0.84375000  1.0
  Nb  Nb5760  1  0.21875000  0.03125000  0.21875000  1.0
  Nb  Nb5761  1  0.21875000  0.03125000  0.46875000  1.0
  Nb  Nb5762  1  0.21875000  0.03125000  0.71875000  1.0
  Nb  Nb5763  1  0.21875000  0.03125000  0.96875000  1.0
  Nb  Nb5764  1  0.21875000  0.28125000  0.21875000  1.0
  Nb  Nb5765  1  0.21875000  0.28125000  0.46875000  1.0
  Nb  Nb5766  1  0.21875000  0.28125000  0.71875000  1.0
  Nb  Nb5767  1  0.21875000  0.28125000  0.96875000  1.0
  Nb  Nb5768  1  0.21875000  0.53125000  0.21875000  1.0
  Nb  Nb5769  1  0.21875000  0.53125000  0.46875000  1.0
  Nb  Nb5770  1  0.21875000  0.53125000  0.71875000  1.0
  Nb  Nb5771  1  0.21875000  0.53125000  0.96875000  1.0
  Nb  Nb5772  1  0.21875000  0.78125000  0.21875000  1.0
  Nb  Nb5773  1  0.21875000  0.78125000  0.46875000  1.0
  Nb  Nb5774  1  0.21875000  0.78125000  0.71875000  1.0
  Nb  Nb5775  1  0.21875000  0.78125000  0.96875000  1.0
  Nb  Nb5776  1  0.46875000  0.03125000  0.21875000  1.0
  Nb  Nb5777  1  0.46875000  0.03125000  0.46875000  1.0
  Nb  Nb5778  1  0.46875000  0.03125000  0.71875000  1.0
  Nb  Nb5779  1  0.46875000  0.03125000  0.96875000  1.0
  Nb  Nb5780  1  0.46875000  0.28125000  0.21875000  1.0
  Nb  Nb5781  1  0.46875000  0.28125000  0.46875000  1.0
  Nb  Nb5782  1  0.46875000  0.28125000  0.71875000  1.0
  Nb  Nb5783  1  0.46875000  0.28125000  0.96875000  1.0
  Nb  Nb5784  1  0.46875000  0.53125000  0.21875000  1.0
  Nb  Nb5785  1  0.46875000  0.53125000  0.46875000  1.0
  Nb  Nb5786  1  0.46875000  0.53125000  0.71875000  1.0
  Nb  Nb5787  1  0.46875000  0.53125000  0.96875000  1.0
  Nb  Nb5788  1  0.46875000  0.78125000  0.21875000  1.0
  Nb  Nb5789  1  0.46875000  0.78125000  0.46875000  1.0
  Nb  Nb5790  1  0.46875000  0.78125000  0.71875000  1.0
  Nb  Nb5791  1  0.46875000  0.78125000  0.96875000  1.0
  Nb  Nb5792  1  0.71875000  0.03125000  0.21875000  1.0
  Nb  Nb5793  1  0.71875000  0.03125000  0.46875000  1.0
  Nb  Nb5794  1  0.71875000  0.03125000  0.71875000  1.0
  Nb  Nb5795  1  0.71875000  0.03125000  0.96875000  1.0
  Nb  Nb5796  1  0.71875000  0.28125000  0.21875000  1.0
  Nb  Nb5797  1  0.71875000  0.28125000  0.46875000  1.0
  Nb  Nb5798  1  0.71875000  0.28125000  0.71875000  1.0
  Nb  Nb5799  1  0.71875000  0.28125000  0.96875000  1.0
  Nb  Nb5800  1  0.71875000  0.53125000  0.21875000  1.0
  Nb  Nb5801  1  0.71875000  0.53125000  0.46875000  1.0
  Nb  Nb5802  1  0.71875000  0.53125000  0.71875000  1.0
  Nb  Nb5803  1  0.71875000  0.53125000  0.96875000  1.0
  Nb  Nb5804  1  0.71875000  0.78125000  0.21875000  1.0
  Nb  Nb5805  1  0.71875000  0.78125000  0.46875000  1.0
  Nb  Nb5806  1  0.71875000  0.78125000  0.71875000  1.0
  Nb  Nb5807  1  0.71875000  0.78125000  0.96875000  1.0
  Nb  Nb5808  1  0.96875000  0.03125000  0.21875000  1.0
  Nb  Nb5809  1  0.96875000  0.03125000  0.46875000  1.0
  Nb  Nb5810  1  0.96875000  0.03125000  0.71875000  1.0
  Nb  Nb5811  1  0.96875000  0.03125000  0.96875000  1.0
  Nb  Nb5812  1  0.96875000  0.28125000  0.21875000  1.0
  Nb  Nb5813  1  0.96875000  0.28125000  0.46875000  1.0
  Nb  Nb5814  1  0.96875000  0.28125000  0.71875000  1.0
  Nb  Nb5815  1  0.96875000  0.28125000  0.96875000  1.0
  Nb  Nb5816  1  0.96875000  0.53125000  0.21875000  1.0
  Nb  Nb5817  1  0.96875000  0.53125000  0.46875000  1.0
  Nb  Nb5818  1  0.96875000  0.53125000  0.71875000  1.0
  Nb  Nb5819  1  0.96875000  0.53125000  0.96875000  1.0
  Nb  Nb5820  1  0.96875000  0.78125000  0.21875000  1.0
  Nb  Nb5821  1  0.96875000  0.78125000  0.46875000  1.0
  Nb  Nb5822  1  0.96875000  0.78125000  0.71875000  1.0
  Nb  Nb5823  1  0.96875000  0.78125000  0.96875000  1.0
  Nb  Nb5824  1  0.09375000  0.15625000  0.21875000  1.0
  Nb  Nb5825  1  0.09375000  0.15625000  0.46875000  1.0
  Nb  Nb5826  1  0.09375000  0.15625000  0.71875000  1.0
  Nb  Nb5827  1  0.09375000  0.15625000  0.96875000  1.0
  Nb  Nb5828  1  0.09375000  0.40625000  0.21875000  1.0
  Nb  Nb5829  1  0.09375000  0.40625000  0.46875000  1.0
  Nb  Nb5830  1  0.09375000  0.40625000  0.71875000  1.0
  Nb  Nb5831  1  0.09375000  0.40625000  0.96875000  1.0
  Nb  Nb5832  1  0.09375000  0.65625000  0.21875000  1.0
  Nb  Nb5833  1  0.09375000  0.65625000  0.46875000  1.0
  Nb  Nb5834  1  0.09375000  0.65625000  0.71875000  1.0
  Nb  Nb5835  1  0.09375000  0.65625000  0.96875000  1.0
  Nb  Nb5836  1  0.09375000  0.90625000  0.21875000  1.0
  Nb  Nb5837  1  0.09375000  0.90625000  0.46875000  1.0
  Nb  Nb5838  1  0.09375000  0.90625000  0.71875000  1.0
  Nb  Nb5839  1  0.09375000  0.90625000  0.96875000  1.0
  Nb  Nb5840  1  0.34375000  0.15625000  0.21875000  1.0
  Nb  Nb5841  1  0.34375000  0.15625000  0.46875000  1.0
  Nb  Nb5842  1  0.34375000  0.15625000  0.71875000  1.0
  Nb  Nb5843  1  0.34375000  0.15625000  0.96875000  1.0
  Nb  Nb5844  1  0.34375000  0.40625000  0.21875000  1.0
  Nb  Nb5845  1  0.34375000  0.40625000  0.46875000  1.0
  Nb  Nb5846  1  0.34375000  0.40625000  0.71875000  1.0
  Nb  Nb5847  1  0.34375000  0.40625000  0.96875000  1.0
  Nb  Nb5848  1  0.34375000  0.65625000  0.21875000  1.0
  Nb  Nb5849  1  0.34375000  0.65625000  0.46875000  1.0
  Nb  Nb5850  1  0.34375000  0.65625000  0.71875000  1.0
  Nb  Nb5851  1  0.34375000  0.65625000  0.96875000  1.0
  Nb  Nb5852  1  0.34375000  0.90625000  0.21875000  1.0
  Nb  Nb5853  1  0.34375000  0.90625000  0.46875000  1.0
  Nb  Nb5854  1  0.34375000  0.90625000  0.71875000  1.0
  Nb  Nb5855  1  0.34375000  0.90625000  0.96875000  1.0
  Nb  Nb5856  1  0.59375000  0.15625000  0.21875000  1.0
  Nb  Nb5857  1  0.59375000  0.15625000  0.46875000  1.0
  Nb  Nb5858  1  0.59375000  0.15625000  0.71875000  1.0
  Nb  Nb5859  1  0.59375000  0.15625000  0.96875000  1.0
  Nb  Nb5860  1  0.59375000  0.40625000  0.21875000  1.0
  Nb  Nb5861  1  0.59375000  0.40625000  0.46875000  1.0
  Nb  Nb5862  1  0.59375000  0.40625000  0.71875000  1.0
  Nb  Nb5863  1  0.59375000  0.40625000  0.96875000  1.0
  Nb  Nb5864  1  0.59375000  0.65625000  0.21875000  1.0
  Nb  Nb5865  1  0.59375000  0.65625000  0.46875000  1.0
  Nb  Nb5866  1  0.59375000  0.65625000  0.71875000  1.0
  Nb  Nb5867  1  0.59375000  0.65625000  0.96875000  1.0
  Nb  Nb5868  1  0.59375000  0.90625000  0.21875000  1.0
  Nb  Nb5869  1  0.59375000  0.90625000  0.46875000  1.0
  Nb  Nb5870  1  0.59375000  0.90625000  0.71875000  1.0
  Nb  Nb5871  1  0.59375000  0.90625000  0.96875000  1.0
  Nb  Nb5872  1  0.84375000  0.15625000  0.21875000  1.0
  Nb  Nb5873  1  0.84375000  0.15625000  0.46875000  1.0
  Nb  Nb5874  1  0.84375000  0.15625000  0.71875000  1.0
  Nb  Nb5875  1  0.84375000  0.15625000  0.96875000  1.0
  Nb  Nb5876  1  0.84375000  0.40625000  0.21875000  1.0
  Nb  Nb5877  1  0.84375000  0.40625000  0.46875000  1.0
  Nb  Nb5878  1  0.84375000  0.40625000  0.71875000  1.0
  Nb  Nb5879  1  0.84375000  0.40625000  0.96875000  1.0
  Nb  Nb5880  1  0.84375000  0.65625000  0.21875000  1.0
  Nb  Nb5881  1  0.84375000  0.65625000  0.46875000  1.0
  Nb  Nb5882  1  0.84375000  0.65625000  0.71875000  1.0
  Nb  Nb5883  1  0.84375000  0.65625000  0.96875000  1.0
  Nb  Nb5884  1  0.84375000  0.90625000  0.21875000  1.0
  Nb  Nb5885  1  0.84375000  0.90625000  0.46875000  1.0
  Nb  Nb5886  1  0.84375000  0.90625000  0.71875000  1.0
  Nb  Nb5887  1  0.84375000  0.90625000  0.96875000  1.0
  Nb  Nb5888  1  0.03125000  0.09375000  0.09375000  1.0
  Nb  Nb5889  1  0.03125000  0.09375000  0.34375000  1.0
  Nb  Nb5890  1  0.03125000  0.09375000  0.59375000  1.0
  Nb  Nb5891  1  0.03125000  0.09375000  0.84375000  1.0
  Nb  Nb5892  1  0.03125000  0.34375000  0.09375000  1.0
  Nb  Nb5893  1  0.03125000  0.34375000  0.34375000  1.0
  Nb  Nb5894  1  0.03125000  0.34375000  0.59375000  1.0
  Nb  Nb5895  1  0.03125000  0.34375000  0.84375000  1.0
  Nb  Nb5896  1  0.03125000  0.59375000  0.09375000  1.0
  Nb  Nb5897  1  0.03125000  0.59375000  0.34375000  1.0
  Nb  Nb5898  1  0.03125000  0.59375000  0.59375000  1.0
  Nb  Nb5899  1  0.03125000  0.59375000  0.84375000  1.0
  Nb  Nb5900  1  0.03125000  0.84375000  0.09375000  1.0
  Nb  Nb5901  1  0.03125000  0.84375000  0.34375000  1.0
  Nb  Nb5902  1  0.03125000  0.84375000  0.59375000  1.0
  Nb  Nb5903  1  0.03125000  0.84375000  0.84375000  1.0
  Nb  Nb5904  1  0.28125000  0.09375000  0.09375000  1.0
  Nb  Nb5905  1  0.28125000  0.09375000  0.34375000  1.0
  Nb  Nb5906  1  0.28125000  0.09375000  0.59375000  1.0
  Nb  Nb5907  1  0.28125000  0.09375000  0.84375000  1.0
  Nb  Nb5908  1  0.28125000  0.34375000  0.09375000  1.0
  Nb  Nb5909  1  0.28125000  0.34375000  0.34375000  1.0
  Nb  Nb5910  1  0.28125000  0.34375000  0.59375000  1.0
  Nb  Nb5911  1  0.28125000  0.34375000  0.84375000  1.0
  Nb  Nb5912  1  0.28125000  0.59375000  0.09375000  1.0
  Nb  Nb5913  1  0.28125000  0.59375000  0.34375000  1.0
  Nb  Nb5914  1  0.28125000  0.59375000  0.59375000  1.0
  Nb  Nb5915  1  0.28125000  0.59375000  0.84375000  1.0
  Nb  Nb5916  1  0.28125000  0.84375000  0.09375000  1.0
  Nb  Nb5917  1  0.28125000  0.84375000  0.34375000  1.0
  Nb  Nb5918  1  0.28125000  0.84375000  0.59375000  1.0
  Nb  Nb5919  1  0.28125000  0.84375000  0.84375000  1.0
  Nb  Nb5920  1  0.53125000  0.09375000  0.09375000  1.0
  Nb  Nb5921  1  0.53125000  0.09375000  0.34375000  1.0
  Nb  Nb5922  1  0.53125000  0.09375000  0.59375000  1.0
  Nb  Nb5923  1  0.53125000  0.09375000  0.84375000  1.0
  Nb  Nb5924  1  0.53125000  0.34375000  0.09375000  1.0
  Nb  Nb5925  1  0.53125000  0.34375000  0.34375000  1.0
  Nb  Nb5926  1  0.53125000  0.34375000  0.59375000  1.0
  Nb  Nb5927  1  0.53125000  0.34375000  0.84375000  1.0
  Nb  Nb5928  1  0.53125000  0.59375000  0.09375000  1.0
  Nb  Nb5929  1  0.53125000  0.59375000  0.34375000  1.0
  Nb  Nb5930  1  0.53125000  0.59375000  0.59375000  1.0
  Nb  Nb5931  1  0.53125000  0.59375000  0.84375000  1.0
  Nb  Nb5932  1  0.53125000  0.84375000  0.09375000  1.0
  Nb  Nb5933  1  0.53125000  0.84375000  0.34375000  1.0
  Nb  Nb5934  1  0.53125000  0.84375000  0.59375000  1.0
  Nb  Nb5935  1  0.53125000  0.84375000  0.84375000  1.0
  Nb  Nb5936  1  0.78125000  0.09375000  0.09375000  1.0
  Nb  Nb5937  1  0.78125000  0.09375000  0.34375000  1.0
  Nb  Nb5938  1  0.78125000  0.09375000  0.59375000  1.0
  Nb  Nb5939  1  0.78125000  0.09375000  0.84375000  1.0
  Nb  Nb5940  1  0.78125000  0.34375000  0.09375000  1.0
  Nb  Nb5941  1  0.78125000  0.34375000  0.34375000  1.0
  Nb  Nb5942  1  0.78125000  0.34375000  0.59375000  1.0
  Nb  Nb5943  1  0.78125000  0.34375000  0.84375000  1.0
  Nb  Nb5944  1  0.78125000  0.59375000  0.09375000  1.0
  Nb  Nb5945  1  0.78125000  0.59375000  0.34375000  1.0
  Nb  Nb5946  1  0.78125000  0.59375000  0.59375000  1.0
  Nb  Nb5947  1  0.78125000  0.59375000  0.84375000  1.0
  Nb  Nb5948  1  0.78125000  0.84375000  0.09375000  1.0
  Nb  Nb5949  1  0.78125000  0.84375000  0.34375000  1.0
  Nb  Nb5950  1  0.78125000  0.84375000  0.59375000  1.0
  Nb  Nb5951  1  0.78125000  0.84375000  0.84375000  1.0
  Nb  Nb5952  1  0.15625000  0.21875000  0.09375000  1.0
  Nb  Nb5953  1  0.15625000  0.21875000  0.34375000  1.0
  Nb  Nb5954  1  0.15625000  0.21875000  0.59375000  1.0
  Nb  Nb5955  1  0.15625000  0.21875000  0.84375000  1.0
  Nb  Nb5956  1  0.15625000  0.46875000  0.09375000  1.0
  Nb  Nb5957  1  0.15625000  0.46875000  0.34375000  1.0
  Nb  Nb5958  1  0.15625000  0.46875000  0.59375000  1.0
  Nb  Nb5959  1  0.15625000  0.46875000  0.84375000  1.0
  Nb  Nb5960  1  0.15625000  0.71875000  0.09375000  1.0
  Nb  Nb5961  1  0.15625000  0.71875000  0.34375000  1.0
  Nb  Nb5962  1  0.15625000  0.71875000  0.59375000  1.0
  Nb  Nb5963  1  0.15625000  0.71875000  0.84375000  1.0
  Nb  Nb5964  1  0.15625000  0.96875000  0.09375000  1.0
  Nb  Nb5965  1  0.15625000  0.96875000  0.34375000  1.0
  Nb  Nb5966  1  0.15625000  0.96875000  0.59375000  1.0
  Nb  Nb5967  1  0.15625000  0.96875000  0.84375000  1.0
  Nb  Nb5968  1  0.40625000  0.21875000  0.09375000  1.0
  Nb  Nb5969  1  0.40625000  0.21875000  0.34375000  1.0
  Nb  Nb5970  1  0.40625000  0.21875000  0.59375000  1.0
  Nb  Nb5971  1  0.40625000  0.21875000  0.84375000  1.0
  Nb  Nb5972  1  0.40625000  0.46875000  0.09375000  1.0
  Nb  Nb5973  1  0.40625000  0.46875000  0.34375000  1.0
  Nb  Nb5974  1  0.40625000  0.46875000  0.59375000  1.0
  Nb  Nb5975  1  0.40625000  0.46875000  0.84375000  1.0
  Nb  Nb5976  1  0.40625000  0.71875000  0.09375000  1.0
  Nb  Nb5977  1  0.40625000  0.71875000  0.34375000  1.0
  Nb  Nb5978  1  0.40625000  0.71875000  0.59375000  1.0
  Nb  Nb5979  1  0.40625000  0.71875000  0.84375000  1.0
  Nb  Nb5980  1  0.40625000  0.96875000  0.09375000  1.0
  Nb  Nb5981  1  0.40625000  0.96875000  0.34375000  1.0
  Nb  Nb5982  1  0.40625000  0.96875000  0.59375000  1.0
  Nb  Nb5983  1  0.40625000  0.96875000  0.84375000  1.0
  Nb  Nb5984  1  0.65625000  0.21875000  0.09375000  1.0
  Nb  Nb5985  1  0.65625000  0.21875000  0.34375000  1.0
  Nb  Nb5986  1  0.65625000  0.21875000  0.59375000  1.0
  Nb  Nb5987  1  0.65625000  0.21875000  0.84375000  1.0
  Nb  Nb5988  1  0.65625000  0.46875000  0.09375000  1.0
  Nb  Nb5989  1  0.65625000  0.46875000  0.34375000  1.0
  Nb  Nb5990  1  0.65625000  0.46875000  0.59375000  1.0
  Nb  Nb5991  1  0.65625000  0.46875000  0.84375000  1.0
  Nb  Nb5992  1  0.65625000  0.71875000  0.09375000  1.0
  Nb  Nb5993  1  0.65625000  0.71875000  0.34375000  1.0
  Nb  Nb5994  1  0.65625000  0.71875000  0.59375000  1.0
  Nb  Nb5995  1  0.65625000  0.71875000  0.84375000  1.0
  Nb  Nb5996  1  0.65625000  0.96875000  0.09375000  1.0
  Nb  Nb5997  1  0.65625000  0.96875000  0.34375000  1.0
  Nb  Nb5998  1  0.65625000  0.96875000  0.59375000  1.0
  Nb  Nb5999  1  0.65625000  0.96875000  0.84375000  1.0
  Nb  Nb6000  1  0.90625000  0.21875000  0.09375000  1.0
  Nb  Nb6001  1  0.90625000  0.21875000  0.34375000  1.0
  Nb  Nb6002  1  0.90625000  0.21875000  0.59375000  1.0
  Nb  Nb6003  1  0.90625000  0.21875000  0.84375000  1.0
  Nb  Nb6004  1  0.90625000  0.46875000  0.09375000  1.0
  Nb  Nb6005  1  0.90625000  0.46875000  0.34375000  1.0
  Nb  Nb6006  1  0.90625000  0.46875000  0.59375000  1.0
  Nb  Nb6007  1  0.90625000  0.46875000  0.84375000  1.0
  Nb  Nb6008  1  0.90625000  0.71875000  0.09375000  1.0
  Nb  Nb6009  1  0.90625000  0.71875000  0.34375000  1.0
  Nb  Nb6010  1  0.90625000  0.71875000  0.59375000  1.0
  Nb  Nb6011  1  0.90625000  0.71875000  0.84375000  1.0
  Nb  Nb6012  1  0.90625000  0.96875000  0.09375000  1.0
  Nb  Nb6013  1  0.90625000  0.96875000  0.34375000  1.0
  Nb  Nb6014  1  0.90625000  0.96875000  0.59375000  1.0
  Nb  Nb6015  1  0.90625000  0.96875000  0.84375000  1.0
  Nb  Nb6016  1  0.15625000  0.09375000  0.21875000  1.0
  Nb  Nb6017  1  0.15625000  0.09375000  0.46875000  1.0
  Nb  Nb6018  1  0.15625000  0.09375000  0.71875000  1.0
  Nb  Nb6019  1  0.15625000  0.09375000  0.96875000  1.0
  Nb  Nb6020  1  0.15625000  0.34375000  0.21875000  1.0
  Nb  Nb6021  1  0.15625000  0.34375000  0.46875000  1.0
  Nb  Nb6022  1  0.15625000  0.34375000  0.71875000  1.0
  Nb  Nb6023  1  0.15625000  0.34375000  0.96875000  1.0
  Nb  Nb6024  1  0.15625000  0.59375000  0.21875000  1.0
  Nb  Nb6025  1  0.15625000  0.59375000  0.46875000  1.0
  Nb  Nb6026  1  0.15625000  0.59375000  0.71875000  1.0
  Nb  Nb6027  1  0.15625000  0.59375000  0.96875000  1.0
  Nb  Nb6028  1  0.15625000  0.84375000  0.21875000  1.0
  Nb  Nb6029  1  0.15625000  0.84375000  0.46875000  1.0
  Nb  Nb6030  1  0.15625000  0.84375000  0.71875000  1.0
  Nb  Nb6031  1  0.15625000  0.84375000  0.96875000  1.0
  Nb  Nb6032  1  0.40625000  0.09375000  0.21875000  1.0
  Nb  Nb6033  1  0.40625000  0.09375000  0.46875000  1.0
  Nb  Nb6034  1  0.40625000  0.09375000  0.71875000  1.0
  Nb  Nb6035  1  0.40625000  0.09375000  0.96875000  1.0
  Nb  Nb6036  1  0.40625000  0.34375000  0.21875000  1.0
  Nb  Nb6037  1  0.40625000  0.34375000  0.46875000  1.0
  Nb  Nb6038  1  0.40625000  0.34375000  0.71875000  1.0
  Nb  Nb6039  1  0.40625000  0.34375000  0.96875000  1.0
  Nb  Nb6040  1  0.40625000  0.59375000  0.21875000  1.0
  Nb  Nb6041  1  0.40625000  0.59375000  0.46875000  1.0
  Nb  Nb6042  1  0.40625000  0.59375000  0.71875000  1.0
  Nb  Nb6043  1  0.40625000  0.59375000  0.96875000  1.0
  Nb  Nb6044  1  0.40625000  0.84375000  0.21875000  1.0
  Nb  Nb6045  1  0.40625000  0.84375000  0.46875000  1.0
  Nb  Nb6046  1  0.40625000  0.84375000  0.71875000  1.0
  Nb  Nb6047  1  0.40625000  0.84375000  0.96875000  1.0
  Nb  Nb6048  1  0.65625000  0.09375000  0.21875000  1.0
  Nb  Nb6049  1  0.65625000  0.09375000  0.46875000  1.0
  Nb  Nb6050  1  0.65625000  0.09375000  0.71875000  1.0
  Nb  Nb6051  1  0.65625000  0.09375000  0.96875000  1.0
  Nb  Nb6052  1  0.65625000  0.34375000  0.21875000  1.0
  Nb  Nb6053  1  0.65625000  0.34375000  0.46875000  1.0
  Nb  Nb6054  1  0.65625000  0.34375000  0.71875000  1.0
  Nb  Nb6055  1  0.65625000  0.34375000  0.96875000  1.0
  Nb  Nb6056  1  0.65625000  0.59375000  0.21875000  1.0
  Nb  Nb6057  1  0.65625000  0.59375000  0.46875000  1.0
  Nb  Nb6058  1  0.65625000  0.59375000  0.71875000  1.0
  Nb  Nb6059  1  0.65625000  0.59375000  0.96875000  1.0
  Nb  Nb6060  1  0.65625000  0.84375000  0.21875000  1.0
  Nb  Nb6061  1  0.65625000  0.84375000  0.46875000  1.0
  Nb  Nb6062  1  0.65625000  0.84375000  0.71875000  1.0
  Nb  Nb6063  1  0.65625000  0.84375000  0.96875000  1.0
  Nb  Nb6064  1  0.90625000  0.09375000  0.21875000  1.0
  Nb  Nb6065  1  0.90625000  0.09375000  0.46875000  1.0
  Nb  Nb6066  1  0.90625000  0.09375000  0.71875000  1.0
  Nb  Nb6067  1  0.90625000  0.09375000  0.96875000  1.0
  Nb  Nb6068  1  0.90625000  0.34375000  0.21875000  1.0
  Nb  Nb6069  1  0.90625000  0.34375000  0.46875000  1.0
  Nb  Nb6070  1  0.90625000  0.34375000  0.71875000  1.0
  Nb  Nb6071  1  0.90625000  0.34375000  0.96875000  1.0
  Nb  Nb6072  1  0.90625000  0.59375000  0.21875000  1.0
  Nb  Nb6073  1  0.90625000  0.59375000  0.46875000  1.0
  Nb  Nb6074  1  0.90625000  0.59375000  0.71875000  1.0
  Nb  Nb6075  1  0.90625000  0.59375000  0.96875000  1.0
  Nb  Nb6076  1  0.90625000  0.84375000  0.21875000  1.0
  Nb  Nb6077  1  0.90625000  0.84375000  0.46875000  1.0
  Nb  Nb6078  1  0.90625000  0.84375000  0.71875000  1.0
  Nb  Nb6079  1  0.90625000  0.84375000  0.96875000  1.0
  Nb  Nb6080  1  0.03125000  0.21875000  0.21875000  1.0
  Nb  Nb6081  1  0.03125000  0.21875000  0.46875000  1.0
  Nb  Nb6082  1  0.03125000  0.21875000  0.71875000  1.0
  Nb  Nb6083  1  0.03125000  0.21875000  0.96875000  1.0
  Nb  Nb6084  1  0.03125000  0.46875000  0.21875000  1.0
  Nb  Nb6085  1  0.03125000  0.46875000  0.46875000  1.0
  Nb  Nb6086  1  0.03125000  0.46875000  0.71875000  1.0
  Nb  Nb6087  1  0.03125000  0.46875000  0.96875000  1.0
  Nb  Nb6088  1  0.03125000  0.71875000  0.21875000  1.0
  Nb  Nb6089  1  0.03125000  0.71875000  0.46875000  1.0
  Nb  Nb6090  1  0.03125000  0.71875000  0.71875000  1.0
  Nb  Nb6091  1  0.03125000  0.71875000  0.96875000  1.0
  Nb  Nb6092  1  0.03125000  0.96875000  0.21875000  1.0
  Nb  Nb6093  1  0.03125000  0.96875000  0.46875000  1.0
  Nb  Nb6094  1  0.03125000  0.96875000  0.71875000  1.0
  Nb  Nb6095  1  0.03125000  0.96875000  0.96875000  1.0
  Nb  Nb6096  1  0.28125000  0.21875000  0.21875000  1.0
  Nb  Nb6097  1  0.28125000  0.21875000  0.46875000  1.0
  Nb  Nb6098  1  0.28125000  0.21875000  0.71875000  1.0
  Nb  Nb6099  1  0.28125000  0.21875000  0.96875000  1.0
  Nb  Nb6100  1  0.28125000  0.46875000  0.21875000  1.0
  Nb  Nb6101  1  0.28125000  0.46875000  0.46875000  1.0
  Nb  Nb6102  1  0.28125000  0.46875000  0.71875000  1.0
  Nb  Nb6103  1  0.28125000  0.46875000  0.96875000  1.0
  Nb  Nb6104  1  0.28125000  0.71875000  0.21875000  1.0
  Nb  Nb6105  1  0.28125000  0.71875000  0.46875000  1.0
  Nb  Nb6106  1  0.28125000  0.71875000  0.71875000  1.0
  Nb  Nb6107  1  0.28125000  0.71875000  0.96875000  1.0
  Nb  Nb6108  1  0.28125000  0.96875000  0.21875000  1.0
  Nb  Nb6109  1  0.28125000  0.96875000  0.46875000  1.0
  Nb  Nb6110  1  0.28125000  0.96875000  0.71875000  1.0
  Nb  Nb6111  1  0.28125000  0.96875000  0.96875000  1.0
  Nb  Nb6112  1  0.53125000  0.21875000  0.21875000  1.0
  Nb  Nb6113  1  0.53125000  0.21875000  0.46875000  1.0
  Nb  Nb6114  1  0.53125000  0.21875000  0.71875000  1.0
  Nb  Nb6115  1  0.53125000  0.21875000  0.96875000  1.0
  Nb  Nb6116  1  0.53125000  0.46875000  0.21875000  1.0
  Nb  Nb6117  1  0.53125000  0.46875000  0.46875000  1.0
  Nb  Nb6118  1  0.53125000  0.46875000  0.71875000  1.0
  Nb  Nb6119  1  0.53125000  0.46875000  0.96875000  1.0
  Nb  Nb6120  1  0.53125000  0.71875000  0.21875000  1.0
  Nb  Nb6121  1  0.53125000  0.71875000  0.46875000  1.0
  Nb  Nb6122  1  0.53125000  0.71875000  0.71875000  1.0
  Nb  Nb6123  1  0.53125000  0.71875000  0.96875000  1.0
  Nb  Nb6124  1  0.53125000  0.96875000  0.21875000  1.0
  Nb  Nb6125  1  0.53125000  0.96875000  0.46875000  1.0
  Nb  Nb6126  1  0.53125000  0.96875000  0.71875000  1.0
  Nb  Nb6127  1  0.53125000  0.96875000  0.96875000  1.0
  Nb  Nb6128  1  0.78125000  0.21875000  0.21875000  1.0
  Nb  Nb6129  1  0.78125000  0.21875000  0.46875000  1.0
  Nb  Nb6130  1  0.78125000  0.21875000  0.71875000  1.0
  Nb  Nb6131  1  0.78125000  0.21875000  0.96875000  1.0
  Nb  Nb6132  1  0.78125000  0.46875000  0.21875000  1.0
  Nb  Nb6133  1  0.78125000  0.46875000  0.46875000  1.0
  Nb  Nb6134  1  0.78125000  0.46875000  0.71875000  1.0
  Nb  Nb6135  1  0.78125000  0.46875000  0.96875000  1.0
  Nb  Nb6136  1  0.78125000  0.71875000  0.21875000  1.0
  Nb  Nb6137  1  0.78125000  0.71875000  0.46875000  1.0
  Nb  Nb6138  1  0.78125000  0.71875000  0.71875000  1.0
  Nb  Nb6139  1  0.78125000  0.71875000  0.96875000  1.0
  Nb  Nb6140  1  0.78125000  0.96875000  0.21875000  1.0
  Nb  Nb6141  1  0.78125000  0.96875000  0.46875000  1.0
  Nb  Nb6142  1  0.78125000  0.96875000  0.71875000  1.0
  Nb  Nb6143  1  0.78125000  0.96875000  0.96875000  1.0
  O  O6144  1  0.18750000  0.18750000  0.18750000  1.0
  O  O6145  1  0.18750000  0.18750000  0.43750000  1.0
  O  O6146  1  0.18750000  0.18750000  0.68750000  1.0
  O  O6147  1  0.18750000  0.18750000  0.93750000  1.0
  O  O6148  1  0.18750000  0.43750000  0.18750000  1.0
  O  O6149  1  0.18750000  0.43750000  0.43750000  1.0
  O  O6150  1  0.18750000  0.43750000  0.68750000  1.0
  O  O6151  1  0.18750000  0.43750000  0.93750000  1.0
  O  O6152  1  0.18750000  0.68750000  0.18750000  1.0
  O  O6153  1  0.18750000  0.68750000  0.43750000  1.0
  O  O6154  1  0.18750000  0.68750000  0.68750000  1.0
  O  O6155  1  0.18750000  0.68750000  0.93750000  1.0
  O  O6156  1  0.18750000  0.93750000  0.18750000  1.0
  O  O6157  1  0.18750000  0.93750000  0.43750000  1.0
  O  O6158  1  0.18750000  0.93750000  0.68750000  1.0
  O  O6159  1  0.18750000  0.93750000  0.93750000  1.0
  O  O6160  1  0.43750000  0.18750000  0.18750000  1.0
  O  O6161  1  0.43750000  0.18750000  0.43750000  1.0
  O  O6162  1  0.43750000  0.18750000  0.68750000  1.0
  O  O6163  1  0.43750000  0.18750000  0.93750000  1.0
  O  O6164  1  0.43750000  0.43750000  0.18750000  1.0
  O  O6165  1  0.43750000  0.43750000  0.43750000  1.0
  O  O6166  1  0.43750000  0.43750000  0.68750000  1.0
  O  O6167  1  0.43750000  0.43750000  0.93750000  1.0
  O  O6168  1  0.43750000  0.68750000  0.18750000  1.0
  O  O6169  1  0.43750000  0.68750000  0.43750000  1.0
  O  O6170  1  0.43750000  0.68750000  0.68750000  1.0
  O  O6171  1  0.43750000  0.68750000  0.93750000  1.0
  O  O6172  1  0.43750000  0.93750000  0.18750000  1.0
  O  O6173  1  0.43750000  0.93750000  0.43750000  1.0
  O  O6174  1  0.43750000  0.93750000  0.68750000  1.0
  O  O6175  1  0.43750000  0.93750000  0.93750000  1.0
  O  O6176  1  0.68750000  0.18750000  0.18750000  1.0
  O  O6177  1  0.68750000  0.18750000  0.43750000  1.0
  O  O6178  1  0.68750000  0.18750000  0.68750000  1.0
  O  O6179  1  0.68750000  0.18750000  0.93750000  1.0
  O  O6180  1  0.68750000  0.43750000  0.18750000  1.0
  O  O6181  1  0.68750000  0.43750000  0.43750000  1.0
  O  O6182  1  0.68750000  0.43750000  0.68750000  1.0
  O  O6183  1  0.68750000  0.43750000  0.93750000  1.0
  O  O6184  1  0.68750000  0.68750000  0.18750000  1.0
  O  O6185  1  0.68750000  0.68750000  0.43750000  1.0
  O  O6186  1  0.68750000  0.68750000  0.68750000  1.0
  O  O6187  1  0.68750000  0.68750000  0.93750000  1.0
  O  O6188  1  0.68750000  0.93750000  0.18750000  1.0
  O  O6189  1  0.68750000  0.93750000  0.43750000  1.0
  O  O6190  1  0.68750000  0.93750000  0.68750000  1.0
  O  O6191  1  0.68750000  0.93750000  0.93750000  1.0
  O  O6192  1  0.93750000  0.18750000  0.18750000  1.0
  O  O6193  1  0.93750000  0.18750000  0.43750000  1.0
  O  O6194  1  0.93750000  0.18750000  0.68750000  1.0
  O  O6195  1  0.93750000  0.18750000  0.93750000  1.0
  O  O6196  1  0.93750000  0.43750000  0.18750000  1.0
  O  O6197  1  0.93750000  0.43750000  0.43750000  1.0
  O  O6198  1  0.93750000  0.43750000  0.68750000  1.0
  O  O6199  1  0.93750000  0.43750000  0.93750000  1.0
  O  O6200  1  0.93750000  0.68750000  0.18750000  1.0
  O  O6201  1  0.93750000  0.68750000  0.43750000  1.0
  O  O6202  1  0.93750000  0.68750000  0.68750000  1.0
  O  O6203  1  0.93750000  0.68750000  0.93750000  1.0
  O  O6204  1  0.93750000  0.93750000  0.18750000  1.0
  O  O6205  1  0.93750000  0.93750000  0.43750000  1.0
  O  O6206  1  0.93750000  0.93750000  0.68750000  1.0
  O  O6207  1  0.93750000  0.93750000  0.93750000  1.0
  O  O6208  1  0.06250000  0.06250000  0.18750000  1.0
  O  O6209  1  0.06250000  0.06250000  0.43750000  1.0
  O  O6210  1  0.06250000  0.06250000  0.68750000  1.0
  O  O6211  1  0.06250000  0.06250000  0.93750000  1.0
  O  O6212  1  0.06250000  0.31250000  0.18750000  1.0
  O  O6213  1  0.06250000  0.31250000  0.43750000  1.0
  O  O6214  1  0.06250000  0.31250000  0.68750000  1.0
  O  O6215  1  0.06250000  0.31250000  0.93750000  1.0
  O  O6216  1  0.06250000  0.56250000  0.18750000  1.0
  O  O6217  1  0.06250000  0.56250000  0.43750000  1.0
  O  O6218  1  0.06250000  0.56250000  0.68750000  1.0
  O  O6219  1  0.06250000  0.56250000  0.93750000  1.0
  O  O6220  1  0.06250000  0.81250000  0.18750000  1.0
  O  O6221  1  0.06250000  0.81250000  0.43750000  1.0
  O  O6222  1  0.06250000  0.81250000  0.68750000  1.0
  O  O6223  1  0.06250000  0.81250000  0.93750000  1.0
  O  O6224  1  0.31250000  0.06250000  0.18750000  1.0
  O  O6225  1  0.31250000  0.06250000  0.43750000  1.0
  O  O6226  1  0.31250000  0.06250000  0.68750000  1.0
  O  O6227  1  0.31250000  0.06250000  0.93750000  1.0
  O  O6228  1  0.31250000  0.31250000  0.18750000  1.0
  O  O6229  1  0.31250000  0.31250000  0.43750000  1.0
  O  O6230  1  0.31250000  0.31250000  0.68750000  1.0
  O  O6231  1  0.31250000  0.31250000  0.93750000  1.0
  O  O6232  1  0.31250000  0.56250000  0.18750000  1.0
  O  O6233  1  0.31250000  0.56250000  0.43750000  1.0
  O  O6234  1  0.31250000  0.56250000  0.68750000  1.0
  O  O6235  1  0.31250000  0.56250000  0.93750000  1.0
  O  O6236  1  0.31250000  0.81250000  0.18750000  1.0
  O  O6237  1  0.31250000  0.81250000  0.43750000  1.0
  O  O6238  1  0.31250000  0.81250000  0.68750000  1.0
  O  O6239  1  0.31250000  0.81250000  0.93750000  1.0
  O  O6240  1  0.56250000  0.06250000  0.18750000  1.0
  O  O6241  1  0.56250000  0.06250000  0.43750000  1.0
  O  O6242  1  0.56250000  0.06250000  0.68750000  1.0
  O  O6243  1  0.56250000  0.06250000  0.93750000  1.0
  O  O6244  1  0.56250000  0.31250000  0.18750000  1.0
  O  O6245  1  0.56250000  0.31250000  0.43750000  1.0
  O  O6246  1  0.56250000  0.31250000  0.68750000  1.0
  O  O6247  1  0.56250000  0.31250000  0.93750000  1.0
  O  O6248  1  0.56250000  0.56250000  0.18750000  1.0
  O  O6249  1  0.56250000  0.56250000  0.43750000  1.0
  O  O6250  1  0.56250000  0.56250000  0.68750000  1.0
  O  O6251  1  0.56250000  0.56250000  0.93750000  1.0
  O  O6252  1  0.56250000  0.81250000  0.18750000  1.0
  O  O6253  1  0.56250000  0.81250000  0.43750000  1.0
  O  O6254  1  0.56250000  0.81250000  0.68750000  1.0
  O  O6255  1  0.56250000  0.81250000  0.93750000  1.0
  O  O6256  1  0.81250000  0.06250000  0.18750000  1.0
  O  O6257  1  0.81250000  0.06250000  0.43750000  1.0
  O  O6258  1  0.81250000  0.06250000  0.68750000  1.0
  O  O6259  1  0.81250000  0.06250000  0.93750000  1.0
  O  O6260  1  0.81250000  0.31250000  0.18750000  1.0
  O  O6261  1  0.81250000  0.31250000  0.43750000  1.0
  O  O6262  1  0.81250000  0.31250000  0.68750000  1.0
  O  O6263  1  0.81250000  0.31250000  0.93750000  1.0
  O  O6264  1  0.81250000  0.56250000  0.18750000  1.0
  O  O6265  1  0.81250000  0.56250000  0.43750000  1.0
  O  O6266  1  0.81250000  0.56250000  0.68750000  1.0
  O  O6267  1  0.81250000  0.56250000  0.93750000  1.0
  O  O6268  1  0.81250000  0.81250000  0.18750000  1.0
  O  O6269  1  0.81250000  0.81250000  0.43750000  1.0
  O  O6270  1  0.81250000  0.81250000  0.68750000  1.0
  O  O6271  1  0.81250000  0.81250000  0.93750000  1.0
  O  O6272  1  0.06250000  0.18750000  0.06250000  1.0
  O  O6273  1  0.06250000  0.18750000  0.31250000  1.0
  O  O6274  1  0.06250000  0.18750000  0.56250000  1.0
  O  O6275  1  0.06250000  0.18750000  0.81250000  1.0
  O  O6276  1  0.06250000  0.43750000  0.06250000  1.0
  O  O6277  1  0.06250000  0.43750000  0.31250000  1.0
  O  O6278  1  0.06250000  0.43750000  0.56250000  1.0
  O  O6279  1  0.06250000  0.43750000  0.81250000  1.0
  O  O6280  1  0.06250000  0.68750000  0.06250000  1.0
  O  O6281  1  0.06250000  0.68750000  0.31250000  1.0
  O  O6282  1  0.06250000  0.68750000  0.56250000  1.0
  O  O6283  1  0.06250000  0.68750000  0.81250000  1.0
  O  O6284  1  0.06250000  0.93750000  0.06250000  1.0
  O  O6285  1  0.06250000  0.93750000  0.31250000  1.0
  O  O6286  1  0.06250000  0.93750000  0.56250000  1.0
  O  O6287  1  0.06250000  0.93750000  0.81250000  1.0
  O  O6288  1  0.31250000  0.18750000  0.06250000  1.0
  O  O6289  1  0.31250000  0.18750000  0.31250000  1.0
  O  O6290  1  0.31250000  0.18750000  0.56250000  1.0
  O  O6291  1  0.31250000  0.18750000  0.81250000  1.0
  O  O6292  1  0.31250000  0.43750000  0.06250000  1.0
  O  O6293  1  0.31250000  0.43750000  0.31250000  1.0
  O  O6294  1  0.31250000  0.43750000  0.56250000  1.0
  O  O6295  1  0.31250000  0.43750000  0.81250000  1.0
  O  O6296  1  0.31250000  0.68750000  0.06250000  1.0
  O  O6297  1  0.31250000  0.68750000  0.31250000  1.0
  O  O6298  1  0.31250000  0.68750000  0.56250000  1.0
  O  O6299  1  0.31250000  0.68750000  0.81250000  1.0
  O  O6300  1  0.31250000  0.93750000  0.06250000  1.0
  O  O6301  1  0.31250000  0.93750000  0.31250000  1.0
  O  O6302  1  0.31250000  0.93750000  0.56250000  1.0
  O  O6303  1  0.31250000  0.93750000  0.81250000  1.0
  O  O6304  1  0.56250000  0.18750000  0.06250000  1.0
  O  O6305  1  0.56250000  0.18750000  0.31250000  1.0
  O  O6306  1  0.56250000  0.18750000  0.56250000  1.0
  O  O6307  1  0.56250000  0.18750000  0.81250000  1.0
  O  O6308  1  0.56250000  0.43750000  0.06250000  1.0
  O  O6309  1  0.56250000  0.43750000  0.31250000  1.0
  O  O6310  1  0.56250000  0.43750000  0.56250000  1.0
  O  O6311  1  0.56250000  0.43750000  0.81250000  1.0
  O  O6312  1  0.56250000  0.68750000  0.06250000  1.0
  O  O6313  1  0.56250000  0.68750000  0.31250000  1.0
  O  O6314  1  0.56250000  0.68750000  0.56250000  1.0
  O  O6315  1  0.56250000  0.68750000  0.81250000  1.0
  O  O6316  1  0.56250000  0.93750000  0.06250000  1.0
  O  O6317  1  0.56250000  0.93750000  0.31250000  1.0
  O  O6318  1  0.56250000  0.93750000  0.56250000  1.0
  O  O6319  1  0.56250000  0.93750000  0.81250000  1.0
  O  O6320  1  0.81250000  0.18750000  0.06250000  1.0
  O  O6321  1  0.81250000  0.18750000  0.31250000  1.0
  O  O6322  1  0.81250000  0.18750000  0.56250000  1.0
  O  O6323  1  0.81250000  0.18750000  0.81250000  1.0
  O  O6324  1  0.81250000  0.43750000  0.06250000  1.0
  O  O6325  1  0.81250000  0.43750000  0.31250000  1.0
  O  O6326  1  0.81250000  0.43750000  0.56250000  1.0
  O  O6327  1  0.81250000  0.43750000  0.81250000  1.0
  O  O6328  1  0.81250000  0.68750000  0.06250000  1.0
  O  O6329  1  0.81250000  0.68750000  0.31250000  1.0
  O  O6330  1  0.81250000  0.68750000  0.56250000  1.0
  O  O6331  1  0.81250000  0.68750000  0.81250000  1.0
  O  O6332  1  0.81250000  0.93750000  0.06250000  1.0
  O  O6333  1  0.81250000  0.93750000  0.31250000  1.0
  O  O6334  1  0.81250000  0.93750000  0.56250000  1.0
  O  O6335  1  0.81250000  0.93750000  0.81250000  1.0
  O  O6336  1  0.18750000  0.06250000  0.06250000  1.0
  O  O6337  1  0.18750000  0.06250000  0.31250000  1.0
  O  O6338  1  0.18750000  0.06250000  0.56250000  1.0
  O  O6339  1  0.18750000  0.06250000  0.81250000  1.0
  O  O6340  1  0.18750000  0.31250000  0.06250000  1.0
  O  O6341  1  0.18750000  0.31250000  0.31250000  1.0
  O  O6342  1  0.18750000  0.31250000  0.56250000  1.0
  O  O6343  1  0.18750000  0.31250000  0.81250000  1.0
  O  O6344  1  0.18750000  0.56250000  0.06250000  1.0
  O  O6345  1  0.18750000  0.56250000  0.31250000  1.0
  O  O6346  1  0.18750000  0.56250000  0.56250000  1.0
  O  O6347  1  0.18750000  0.56250000  0.81250000  1.0
  O  O6348  1  0.18750000  0.81250000  0.06250000  1.0
  O  O6349  1  0.18750000  0.81250000  0.31250000  1.0
  O  O6350  1  0.18750000  0.81250000  0.56250000  1.0
  O  O6351  1  0.18750000  0.81250000  0.81250000  1.0
  O  O6352  1  0.43750000  0.06250000  0.06250000  1.0
  O  O6353  1  0.43750000  0.06250000  0.31250000  1.0
  O  O6354  1  0.43750000  0.06250000  0.56250000  1.0
  O  O6355  1  0.43750000  0.06250000  0.81250000  1.0
  O  O6356  1  0.43750000  0.31250000  0.06250000  1.0
  O  O6357  1  0.43750000  0.31250000  0.31250000  1.0
  O  O6358  1  0.43750000  0.31250000  0.56250000  1.0
  O  O6359  1  0.43750000  0.31250000  0.81250000  1.0
  O  O6360  1  0.43750000  0.56250000  0.06250000  1.0
  O  O6361  1  0.43750000  0.56250000  0.31250000  1.0
  O  O6362  1  0.43750000  0.56250000  0.56250000  1.0
  O  O6363  1  0.43750000  0.56250000  0.81250000  1.0
  O  O6364  1  0.43750000  0.81250000  0.06250000  1.0
  O  O6365  1  0.43750000  0.81250000  0.31250000  1.0
  O  O6366  1  0.43750000  0.81250000  0.56250000  1.0
  O  O6367  1  0.43750000  0.81250000  0.81250000  1.0
  O  O6368  1  0.68750000  0.06250000  0.06250000  1.0
  O  O6369  1  0.68750000  0.06250000  0.31250000  1.0
  O  O6370  1  0.68750000  0.06250000  0.56250000  1.0
  O  O6371  1  0.68750000  0.06250000  0.81250000  1.0
  O  O6372  1  0.68750000  0.31250000  0.06250000  1.0
  O  O6373  1  0.68750000  0.31250000  0.31250000  1.0
  O  O6374  1  0.68750000  0.31250000  0.56250000  1.0
  O  O6375  1  0.68750000  0.31250000  0.81250000  1.0
  O  O6376  1  0.68750000  0.56250000  0.06250000  1.0
  O  O6377  1  0.68750000  0.56250000  0.31250000  1.0
  O  O6378  1  0.68750000  0.56250000  0.56250000  1.0
  O  O6379  1  0.68750000  0.56250000  0.81250000  1.0
  O  O6380  1  0.68750000  0.81250000  0.06250000  1.0
  O  O6381  1  0.68750000  0.81250000  0.31250000  1.0
  O  O6382  1  0.68750000  0.81250000  0.56250000  1.0
  O  O6383  1  0.68750000  0.81250000  0.81250000  1.0
  O  O6384  1  0.93750000  0.06250000  0.06250000  1.0
  O  O6385  1  0.93750000  0.06250000  0.31250000  1.0
  O  O6386  1  0.93750000  0.06250000  0.56250000  1.0
  O  O6387  1  0.93750000  0.06250000  0.81250000  1.0
  O  O6388  1  0.93750000  0.31250000  0.06250000  1.0
  O  O6389  1  0.93750000  0.31250000  0.31250000  1.0
  O  O6390  1  0.93750000  0.31250000  0.56250000  1.0
  O  O6391  1  0.93750000  0.31250000  0.81250000  1.0
  O  O6392  1  0.93750000  0.56250000  0.06250000  1.0
  O  O6393  1  0.93750000  0.56250000  0.31250000  1.0
  O  O6394  1  0.93750000  0.56250000  0.56250000  1.0
  O  O6395  1  0.93750000  0.56250000  0.81250000  1.0
  O  O6396  1  0.93750000  0.81250000  0.06250000  1.0
  O  O6397  1  0.93750000  0.81250000  0.31250000  1.0
  O  O6398  1  0.93750000  0.81250000  0.56250000  1.0
  O  O6399  1  0.93750000  0.81250000  0.81250000  1.0
  O  O6400  1  0.18750000  0.12500000  0.12500000  1.0
  O  O6401  1  0.18750000  0.12500000  0.37500000  1.0
  O  O6402  1  0.18750000  0.12500000  0.62500000  1.0
  O  O6403  1  0.18750000  0.12500000  0.87500000  1.0
  O  O6404  1  0.18750000  0.37500000  0.12500000  1.0
  O  O6405  1  0.18750000  0.37500000  0.37500000  1.0
  O  O6406  1  0.18750000  0.37500000  0.62500000  1.0
  O  O6407  1  0.18750000  0.37500000  0.87500000  1.0
  O  O6408  1  0.18750000  0.62500000  0.12500000  1.0
  O  O6409  1  0.18750000  0.62500000  0.37500000  1.0
  O  O6410  1  0.18750000  0.62500000  0.62500000  1.0
  O  O6411  1  0.18750000  0.62500000  0.87500000  1.0
  O  O6412  1  0.18750000  0.87500000  0.12500000  1.0
  O  O6413  1  0.18750000  0.87500000  0.37500000  1.0
  O  O6414  1  0.18750000  0.87500000  0.62500000  1.0
  O  O6415  1  0.18750000  0.87500000  0.87500000  1.0
  O  O6416  1  0.43750000  0.12500000  0.12500000  1.0
  O  O6417  1  0.43750000  0.12500000  0.37500000  1.0
  O  O6418  1  0.43750000  0.12500000  0.62500000  1.0
  O  O6419  1  0.43750000  0.12500000  0.87500000  1.0
  O  O6420  1  0.43750000  0.37500000  0.12500000  1.0
  O  O6421  1  0.43750000  0.37500000  0.37500000  1.0
  O  O6422  1  0.43750000  0.37500000  0.62500000  1.0
  O  O6423  1  0.43750000  0.37500000  0.87500000  1.0
  O  O6424  1  0.43750000  0.62500000  0.12500000  1.0
  O  O6425  1  0.43750000  0.62500000  0.37500000  1.0
  O  O6426  1  0.43750000  0.62500000  0.62500000  1.0
  O  O6427  1  0.43750000  0.62500000  0.87500000  1.0
  O  O6428  1  0.43750000  0.87500000  0.12500000  1.0
  O  O6429  1  0.43750000  0.87500000  0.37500000  1.0
  O  O6430  1  0.43750000  0.87500000  0.62500000  1.0
  O  O6431  1  0.43750000  0.87500000  0.87500000  1.0
  O  O6432  1  0.68750000  0.12500000  0.12500000  1.0
  O  O6433  1  0.68750000  0.12500000  0.37500000  1.0
  O  O6434  1  0.68750000  0.12500000  0.62500000  1.0
  O  O6435  1  0.68750000  0.12500000  0.87500000  1.0
  O  O6436  1  0.68750000  0.37500000  0.12500000  1.0
  O  O6437  1  0.68750000  0.37500000  0.37500000  1.0
  O  O6438  1  0.68750000  0.37500000  0.62500000  1.0
  O  O6439  1  0.68750000  0.37500000  0.87500000  1.0
  O  O6440  1  0.68750000  0.62500000  0.12500000  1.0
  O  O6441  1  0.68750000  0.62500000  0.37500000  1.0
  O  O6442  1  0.68750000  0.62500000  0.62500000  1.0
  O  O6443  1  0.68750000  0.62500000  0.87500000  1.0
  O  O6444  1  0.68750000  0.87500000  0.12500000  1.0
  O  O6445  1  0.68750000  0.87500000  0.37500000  1.0
  O  O6446  1  0.68750000  0.87500000  0.62500000  1.0
  O  O6447  1  0.68750000  0.87500000  0.87500000  1.0
  O  O6448  1  0.93750000  0.12500000  0.12500000  1.0
  O  O6449  1  0.93750000  0.12500000  0.37500000  1.0
  O  O6450  1  0.93750000  0.12500000  0.62500000  1.0
  O  O6451  1  0.93750000  0.12500000  0.87500000  1.0
  O  O6452  1  0.93750000  0.37500000  0.12500000  1.0
  O  O6453  1  0.93750000  0.37500000  0.37500000  1.0
  O  O6454  1  0.93750000  0.37500000  0.62500000  1.0
  O  O6455  1  0.93750000  0.37500000  0.87500000  1.0
  O  O6456  1  0.93750000  0.62500000  0.12500000  1.0
  O  O6457  1  0.93750000  0.62500000  0.37500000  1.0
  O  O6458  1  0.93750000  0.62500000  0.62500000  1.0
  O  O6459  1  0.93750000  0.62500000  0.87500000  1.0
  O  O6460  1  0.93750000  0.87500000  0.12500000  1.0
  O  O6461  1  0.93750000  0.87500000  0.37500000  1.0
  O  O6462  1  0.93750000  0.87500000  0.62500000  1.0
  O  O6463  1  0.93750000  0.87500000  0.87500000  1.0
  O  O6464  1  0.06250000  0.00000000  0.12500000  1.0
  O  O6465  1  0.06250000  0.00000000  0.37500000  1.0
  O  O6466  1  0.06250000  0.00000000  0.62500000  1.0
  O  O6467  1  0.06250000  0.00000000  0.87500000  1.0
  O  O6468  1  0.06250000  0.25000000  0.12500000  1.0
  O  O6469  1  0.06250000  0.25000000  0.37500000  1.0
  O  O6470  1  0.06250000  0.25000000  0.62500000  1.0
  O  O6471  1  0.06250000  0.25000000  0.87500000  1.0
  O  O6472  1  0.06250000  0.50000000  0.12500000  1.0
  O  O6473  1  0.06250000  0.50000000  0.37500000  1.0
  O  O6474  1  0.06250000  0.50000000  0.62500000  1.0
  O  O6475  1  0.06250000  0.50000000  0.87500000  1.0
  O  O6476  1  0.06250000  0.75000000  0.12500000  1.0
  O  O6477  1  0.06250000  0.75000000  0.37500000  1.0
  O  O6478  1  0.06250000  0.75000000  0.62500000  1.0
  O  O6479  1  0.06250000  0.75000000  0.87500000  1.0
  O  O6480  1  0.31250000  0.00000000  0.12500000  1.0
  O  O6481  1  0.31250000  0.00000000  0.37500000  1.0
  O  O6482  1  0.31250000  0.00000000  0.62500000  1.0
  O  O6483  1  0.31250000  0.00000000  0.87500000  1.0
  O  O6484  1  0.31250000  0.25000000  0.12500000  1.0
  O  O6485  1  0.31250000  0.25000000  0.37500000  1.0
  O  O6486  1  0.31250000  0.25000000  0.62500000  1.0
  O  O6487  1  0.31250000  0.25000000  0.87500000  1.0
  O  O6488  1  0.31250000  0.50000000  0.12500000  1.0
  O  O6489  1  0.31250000  0.50000000  0.37500000  1.0
  O  O6490  1  0.31250000  0.50000000  0.62500000  1.0
  O  O6491  1  0.31250000  0.50000000  0.87500000  1.0
  O  O6492  1  0.31250000  0.75000000  0.12500000  1.0
  O  O6493  1  0.31250000  0.75000000  0.37500000  1.0
  O  O6494  1  0.31250000  0.75000000  0.62500000  1.0
  O  O6495  1  0.31250000  0.75000000  0.87500000  1.0
  O  O6496  1  0.56250000  0.00000000  0.12500000  1.0
  O  O6497  1  0.56250000  0.00000000  0.37500000  1.0
  O  O6498  1  0.56250000  0.00000000  0.62500000  1.0
  O  O6499  1  0.56250000  0.00000000  0.87500000  1.0
  O  O6500  1  0.56250000  0.25000000  0.12500000  1.0
  O  O6501  1  0.56250000  0.25000000  0.37500000  1.0
  O  O6502  1  0.56250000  0.25000000  0.62500000  1.0
  O  O6503  1  0.56250000  0.25000000  0.87500000  1.0
  O  O6504  1  0.56250000  0.50000000  0.12500000  1.0
  O  O6505  1  0.56250000  0.50000000  0.37500000  1.0
  O  O6506  1  0.56250000  0.50000000  0.62500000  1.0
  O  O6507  1  0.56250000  0.50000000  0.87500000  1.0
  O  O6508  1  0.56250000  0.75000000  0.12500000  1.0
  O  O6509  1  0.56250000  0.75000000  0.37500000  1.0
  O  O6510  1  0.56250000  0.75000000  0.62500000  1.0
  O  O6511  1  0.56250000  0.75000000  0.87500000  1.0
  O  O6512  1  0.81250000  0.00000000  0.12500000  1.0
  O  O6513  1  0.81250000  0.00000000  0.37500000  1.0
  O  O6514  1  0.81250000  0.00000000  0.62500000  1.0
  O  O6515  1  0.81250000  0.00000000  0.87500000  1.0
  O  O6516  1  0.81250000  0.25000000  0.12500000  1.0
  O  O6517  1  0.81250000  0.25000000  0.37500000  1.0
  O  O6518  1  0.81250000  0.25000000  0.62500000  1.0
  O  O6519  1  0.81250000  0.25000000  0.87500000  1.0
  O  O6520  1  0.81250000  0.50000000  0.12500000  1.0
  O  O6521  1  0.81250000  0.50000000  0.37500000  1.0
  O  O6522  1  0.81250000  0.50000000  0.62500000  1.0
  O  O6523  1  0.81250000  0.50000000  0.87500000  1.0
  O  O6524  1  0.81250000  0.75000000  0.12500000  1.0
  O  O6525  1  0.81250000  0.75000000  0.37500000  1.0
  O  O6526  1  0.81250000  0.75000000  0.62500000  1.0
  O  O6527  1  0.81250000  0.75000000  0.87500000  1.0
  O  O6528  1  0.06250000  0.12500000  0.00000000  1.0
  O  O6529  1  0.06250000  0.12500000  0.25000000  1.0
  O  O6530  1  0.06250000  0.12500000  0.50000000  1.0
  O  O6531  1  0.06250000  0.12500000  0.75000000  1.0
  O  O6532  1  0.06250000  0.37500000  0.00000000  1.0
  O  O6533  1  0.06250000  0.37500000  0.25000000  1.0
  O  O6534  1  0.06250000  0.37500000  0.50000000  1.0
  O  O6535  1  0.06250000  0.37500000  0.75000000  1.0
  O  O6536  1  0.06250000  0.62500000  0.00000000  1.0
  O  O6537  1  0.06250000  0.62500000  0.25000000  1.0
  O  O6538  1  0.06250000  0.62500000  0.50000000  1.0
  O  O6539  1  0.06250000  0.62500000  0.75000000  1.0
  O  O6540  1  0.06250000  0.87500000  1.00000000  1.0
  O  O6541  1  0.06250000  0.87500000  0.25000000  1.0
  O  O6542  1  0.06250000  0.87500000  0.50000000  1.0
  O  O6543  1  0.06250000  0.87500000  0.75000000  1.0
  O  O6544  1  0.31250000  0.12500000  0.00000000  1.0
  O  O6545  1  0.31250000  0.12500000  0.25000000  1.0
  O  O6546  1  0.31250000  0.12500000  0.50000000  1.0
  O  O6547  1  0.31250000  0.12500000  0.75000000  1.0
  O  O6548  1  0.31250000  0.37500000  0.00000000  1.0
  O  O6549  1  0.31250000  0.37500000  0.25000000  1.0
  O  O6550  1  0.31250000  0.37500000  0.50000000  1.0
  O  O6551  1  0.31250000  0.37500000  0.75000000  1.0
  O  O6552  1  0.31250000  0.62500000  0.00000000  1.0
  O  O6553  1  0.31250000  0.62500000  0.25000000  1.0
  O  O6554  1  0.31250000  0.62500000  0.50000000  1.0
  O  O6555  1  0.31250000  0.62500000  0.75000000  1.0
  O  O6556  1  0.31250000  0.87500000  0.00000000  1.0
  O  O6557  1  0.31250000  0.87500000  0.25000000  1.0
  O  O6558  1  0.31250000  0.87500000  0.50000000  1.0
  O  O6559  1  0.31250000  0.87500000  0.75000000  1.0
  O  O6560  1  0.56250000  0.12500000  0.00000000  1.0
  O  O6561  1  0.56250000  0.12500000  0.25000000  1.0
  O  O6562  1  0.56250000  0.12500000  0.50000000  1.0
  O  O6563  1  0.56250000  0.12500000  0.75000000  1.0
  O  O6564  1  0.56250000  0.37500000  1.00000000  1.0
  O  O6565  1  0.56250000  0.37500000  0.25000000  1.0
  O  O6566  1  0.56250000  0.37500000  0.50000000  1.0
  O  O6567  1  0.56250000  0.37500000  0.75000000  1.0
  O  O6568  1  0.56250000  0.62500000  0.00000000  1.0
  O  O6569  1  0.56250000  0.62500000  0.25000000  1.0
  O  O6570  1  0.56250000  0.62500000  0.50000000  1.0
  O  O6571  1  0.56250000  0.62500000  0.75000000  1.0
  O  O6572  1  0.56250000  0.87500000  0.00000000  1.0
  O  O6573  1  0.56250000  0.87500000  0.25000000  1.0
  O  O6574  1  0.56250000  0.87500000  0.50000000  1.0
  O  O6575  1  0.56250000  0.87500000  0.75000000  1.0
  O  O6576  1  0.81250000  0.12500000  0.00000000  1.0
  O  O6577  1  0.81250000  0.12500000  0.25000000  1.0
  O  O6578  1  0.81250000  0.12500000  0.50000000  1.0
  O  O6579  1  0.81250000  0.12500000  0.75000000  1.0
  O  O6580  1  0.81250000  0.37500000  0.00000000  1.0
  O  O6581  1  0.81250000  0.37500000  0.25000000  1.0
  O  O6582  1  0.81250000  0.37500000  0.50000000  1.0
  O  O6583  1  0.81250000  0.37500000  0.75000000  1.0
  O  O6584  1  0.81250000  0.62500000  0.00000000  1.0
  O  O6585  1  0.81250000  0.62500000  0.25000000  1.0
  O  O6586  1  0.81250000  0.62500000  0.50000000  1.0
  O  O6587  1  0.81250000  0.62500000  0.75000000  1.0
  O  O6588  1  0.81250000  0.87500000  0.00000000  1.0
  O  O6589  1  0.81250000  0.87500000  0.25000000  1.0
  O  O6590  1  0.81250000  0.87500000  0.50000000  1.0
  O  O6591  1  0.81250000  0.87500000  0.75000000  1.0
  O  O6592  1  0.18750000  0.00000000  0.00000000  1.0
  O  O6593  1  0.18750000  0.00000000  0.25000000  1.0
  O  O6594  1  0.18750000  0.00000000  0.50000000  1.0
  O  O6595  1  0.18750000  0.00000000  0.75000000  1.0
  O  O6596  1  0.18750000  0.25000000  0.00000000  1.0
  O  O6597  1  0.18750000  0.25000000  0.25000000  1.0
  O  O6598  1  0.18750000  0.25000000  0.50000000  1.0
  O  O6599  1  0.18750000  0.25000000  0.75000000  1.0
  O  O6600  1  0.18750000  0.50000000  0.00000000  1.0
  O  O6601  1  0.18750000  0.50000000  0.25000000  1.0
  O  O6602  1  0.18750000  0.50000000  0.50000000  1.0
  O  O6603  1  0.18750000  0.50000000  0.75000000  1.0
  O  O6604  1  0.18750000  0.75000000  1.00000000  1.0
  O  O6605  1  0.18750000  0.75000000  0.25000000  1.0
  O  O6606  1  0.18750000  0.75000000  0.50000000  1.0
  O  O6607  1  0.18750000  0.75000000  0.75000000  1.0
  O  O6608  1  0.43750000  0.00000000  0.00000000  1.0
  O  O6609  1  0.43750000  0.00000000  0.25000000  1.0
  O  O6610  1  0.43750000  0.00000000  0.50000000  1.0
  O  O6611  1  0.43750000  0.00000000  0.75000000  1.0
  O  O6612  1  0.43750000  0.25000000  0.00000000  1.0
  O  O6613  1  0.43750000  0.25000000  0.25000000  1.0
  O  O6614  1  0.43750000  0.25000000  0.50000000  1.0
  O  O6615  1  0.43750000  0.25000000  0.75000000  1.0
  O  O6616  1  0.43750000  0.50000000  0.00000000  1.0
  O  O6617  1  0.43750000  0.50000000  0.25000000  1.0
  O  O6618  1  0.43750000  0.50000000  0.50000000  1.0
  O  O6619  1  0.43750000  0.50000000  0.75000000  1.0
  O  O6620  1  0.43750000  0.75000000  0.00000000  1.0
  O  O6621  1  0.43750000  0.75000000  0.25000000  1.0
  O  O6622  1  0.43750000  0.75000000  0.50000000  1.0
  O  O6623  1  0.43750000  0.75000000  0.75000000  1.0
  O  O6624  1  0.68750000  0.00000000  0.00000000  1.0
  O  O6625  1  0.68750000  0.00000000  0.25000000  1.0
  O  O6626  1  0.68750000  0.00000000  0.50000000  1.0
  O  O6627  1  0.68750000  0.00000000  0.75000000  1.0
  O  O6628  1  0.68750000  0.25000000  1.00000000  1.0
  O  O6629  1  0.68750000  0.25000000  0.25000000  1.0
  O  O6630  1  0.68750000  0.25000000  0.50000000  1.0
  O  O6631  1  0.68750000  0.25000000  0.75000000  1.0
  O  O6632  1  0.68750000  0.50000000  0.00000000  1.0
  O  O6633  1  0.68750000  0.50000000  0.25000000  1.0
  O  O6634  1  0.68750000  0.50000000  0.50000000  1.0
  O  O6635  1  0.68750000  0.50000000  0.75000000  1.0
  O  O6636  1  0.68750000  0.75000000  0.00000000  1.0
  O  O6637  1  0.68750000  0.75000000  0.25000000  1.0
  O  O6638  1  0.68750000  0.75000000  0.50000000  1.0
  O  O6639  1  0.68750000  0.75000000  0.75000000  1.0
  O  O6640  1  0.93750000  0.00000000  0.00000000  1.0
  O  O6641  1  0.93750000  0.00000000  0.25000000  1.0
  O  O6642  1  0.93750000  0.00000000  0.50000000  1.0
  O  O6643  1  0.93750000  0.00000000  0.75000000  1.0
  O  O6644  1  0.93750000  0.25000000  0.00000000  1.0
  O  O6645  1  0.93750000  0.25000000  0.25000000  1.0
  O  O6646  1  0.93750000  0.25000000  0.50000000  1.0
  O  O6647  1  0.93750000  0.25000000  0.75000000  1.0
  O  O6648  1  0.93750000  0.50000000  0.00000000  1.0
  O  O6649  1  0.93750000  0.50000000  0.25000000  1.0
  O  O6650  1  0.93750000  0.50000000  0.50000000  1.0
  O  O6651  1  0.93750000  0.50000000  0.75000000  1.0
  O  O6652  1  0.93750000  0.75000000  0.00000000  1.0
  O  O6653  1  0.93750000  0.75000000  0.25000000  1.0
  O  O6654  1  0.93750000  0.75000000  0.50000000  1.0
  O  O6655  1  0.93750000  0.75000000  0.75000000  1.0
  O  O6656  1  0.12500000  0.18750000  0.12500000  1.0
  O  O6657  1  0.12500000  0.18750000  0.37500000  1.0
  O  O6658  1  0.12500000  0.18750000  0.62500000  1.0
  O  O6659  1  0.12500000  0.18750000  0.87500000  1.0
  O  O6660  1  0.12500000  0.43750000  0.12500000  1.0
  O  O6661  1  0.12500000  0.43750000  0.37500000  1.0
  O  O6662  1  0.12500000  0.43750000  0.62500000  1.0
  O  O6663  1  0.12500000  0.43750000  0.87500000  1.0
  O  O6664  1  0.12500000  0.68750000  0.12500000  1.0
  O  O6665  1  0.12500000  0.68750000  0.37500000  1.0
  O  O6666  1  0.12500000  0.68750000  0.62500000  1.0
  O  O6667  1  0.12500000  0.68750000  0.87500000  1.0
  O  O6668  1  0.12500000  0.93750000  0.12500000  1.0
  O  O6669  1  0.12500000  0.93750000  0.37500000  1.0
  O  O6670  1  0.12500000  0.93750000  0.62500000  1.0
  O  O6671  1  0.12500000  0.93750000  0.87500000  1.0
  O  O6672  1  0.37500000  0.18750000  0.12500000  1.0
  O  O6673  1  0.37500000  0.18750000  0.37500000  1.0
  O  O6674  1  0.37500000  0.18750000  0.62500000  1.0
  O  O6675  1  0.37500000  0.18750000  0.87500000  1.0
  O  O6676  1  0.37500000  0.43750000  0.12500000  1.0
  O  O6677  1  0.37500000  0.43750000  0.37500000  1.0
  O  O6678  1  0.37500000  0.43750000  0.62500000  1.0
  O  O6679  1  0.37500000  0.43750000  0.87500000  1.0
  O  O6680  1  0.37500000  0.68750000  0.12500000  1.0
  O  O6681  1  0.37500000  0.68750000  0.37500000  1.0
  O  O6682  1  0.37500000  0.68750000  0.62500000  1.0
  O  O6683  1  0.37500000  0.68750000  0.87500000  1.0
  O  O6684  1  0.37500000  0.93750000  0.12500000  1.0
  O  O6685  1  0.37500000  0.93750000  0.37500000  1.0
  O  O6686  1  0.37500000  0.93750000  0.62500000  1.0
  O  O6687  1  0.37500000  0.93750000  0.87500000  1.0
  O  O6688  1  0.62500000  0.18750000  0.12500000  1.0
  O  O6689  1  0.62500000  0.18750000  0.37500000  1.0
  O  O6690  1  0.62500000  0.18750000  0.62500000  1.0
  O  O6691  1  0.62500000  0.18750000  0.87500000  1.0
  O  O6692  1  0.62500000  0.43750000  0.12500000  1.0
  O  O6693  1  0.62500000  0.43750000  0.37500000  1.0
  O  O6694  1  0.62500000  0.43750000  0.62500000  1.0
  O  O6695  1  0.62500000  0.43750000  0.87500000  1.0
  O  O6696  1  0.62500000  0.68750000  0.12500000  1.0
  O  O6697  1  0.62500000  0.68750000  0.37500000  1.0
  O  O6698  1  0.62500000  0.68750000  0.62500000  1.0
  O  O6699  1  0.62500000  0.68750000  0.87500000  1.0
  O  O6700  1  0.62500000  0.93750000  0.12500000  1.0
  O  O6701  1  0.62500000  0.93750000  0.37500000  1.0
  O  O6702  1  0.62500000  0.93750000  0.62500000  1.0
  O  O6703  1  0.62500000  0.93750000  0.87500000  1.0
  O  O6704  1  0.87500000  0.18750000  0.12500000  1.0
  O  O6705  1  0.87500000  0.18750000  0.37500000  1.0
  O  O6706  1  0.87500000  0.18750000  0.62500000  1.0
  O  O6707  1  0.87500000  0.18750000  0.87500000  1.0
  O  O6708  1  0.87500000  0.43750000  0.12500000  1.0
  O  O6709  1  0.87500000  0.43750000  0.37500000  1.0
  O  O6710  1  0.87500000  0.43750000  0.62500000  1.0
  O  O6711  1  0.87500000  0.43750000  0.87500000  1.0
  O  O6712  1  0.87500000  0.68750000  0.12500000  1.0
  O  O6713  1  0.87500000  0.68750000  0.37500000  1.0
  O  O6714  1  0.87500000  0.68750000  0.62500000  1.0
  O  O6715  1  0.87500000  0.68750000  0.87500000  1.0
  O  O6716  1  0.87500000  0.93750000  0.12500000  1.0
  O  O6717  1  0.87500000  0.93750000  0.37500000  1.0
  O  O6718  1  0.87500000  0.93750000  0.62500000  1.0
  O  O6719  1  0.87500000  0.93750000  0.87500000  1.0
  O  O6720  1  0.00000000  0.06250000  0.12500000  1.0
  O  O6721  1  0.00000000  0.06250000  0.37500000  1.0
  O  O6722  1  0.00000000  0.06250000  0.62500000  1.0
  O  O6723  1  0.00000000  0.06250000  0.87500000  1.0
  O  O6724  1  0.00000000  0.31250000  0.12500000  1.0
  O  O6725  1  0.00000000  0.31250000  0.37500000  1.0
  O  O6726  1  0.00000000  0.31250000  0.62500000  1.0
  O  O6727  1  0.00000000  0.31250000  0.87500000  1.0
  O  O6728  1  0.00000000  0.56250000  0.12500000  1.0
  O  O6729  1  0.00000000  0.56250000  0.37500000  1.0
  O  O6730  1  0.00000000  0.56250000  0.62500000  1.0
  O  O6731  1  0.00000000  0.56250000  0.87500000  1.0
  O  O6732  1  0.00000000  0.81250000  0.12500000  1.0
  O  O6733  1  0.00000000  0.81250000  0.37500000  1.0
  O  O6734  1  0.00000000  0.81250000  0.62500000  1.0
  O  O6735  1  0.00000000  0.81250000  0.87500000  1.0
  O  O6736  1  0.25000000  0.06250000  0.12500000  1.0
  O  O6737  1  0.25000000  0.06250000  0.37500000  1.0
  O  O6738  1  0.25000000  0.06250000  0.62500000  1.0
  O  O6739  1  0.25000000  0.06250000  0.87500000  1.0
  O  O6740  1  0.25000000  0.31250000  0.12500000  1.0
  O  O6741  1  0.25000000  0.31250000  0.37500000  1.0
  O  O6742  1  0.25000000  0.31250000  0.62500000  1.0
  O  O6743  1  0.25000000  0.31250000  0.87500000  1.0
  O  O6744  1  0.25000000  0.56250000  0.12500000  1.0
  O  O6745  1  0.25000000  0.56250000  0.37500000  1.0
  O  O6746  1  0.25000000  0.56250000  0.62500000  1.0
  O  O6747  1  0.25000000  0.56250000  0.87500000  1.0
  O  O6748  1  0.25000000  0.81250000  0.12500000  1.0
  O  O6749  1  0.25000000  0.81250000  0.37500000  1.0
  O  O6750  1  0.25000000  0.81250000  0.62500000  1.0
  O  O6751  1  0.25000000  0.81250000  0.87500000  1.0
  O  O6752  1  0.50000000  0.06250000  0.12500000  1.0
  O  O6753  1  0.50000000  0.06250000  0.37500000  1.0
  O  O6754  1  0.50000000  0.06250000  0.62500000  1.0
  O  O6755  1  0.50000000  0.06250000  0.87500000  1.0
  O  O6756  1  0.50000000  0.31250000  0.12500000  1.0
  O  O6757  1  0.50000000  0.31250000  0.37500000  1.0
  O  O6758  1  0.50000000  0.31250000  0.62500000  1.0
  O  O6759  1  0.50000000  0.31250000  0.87500000  1.0
  O  O6760  1  0.50000000  0.56250000  0.12500000  1.0
  O  O6761  1  0.50000000  0.56250000  0.37500000  1.0
  O  O6762  1  0.50000000  0.56250000  0.62500000  1.0
  O  O6763  1  0.50000000  0.56250000  0.87500000  1.0
  O  O6764  1  0.50000000  0.81250000  0.12500000  1.0
  O  O6765  1  0.50000000  0.81250000  0.37500000  1.0
  O  O6766  1  0.50000000  0.81250000  0.62500000  1.0
  O  O6767  1  0.50000000  0.81250000  0.87500000  1.0
  O  O6768  1  0.75000000  0.06250000  0.12500000  1.0
  O  O6769  1  0.75000000  0.06250000  0.37500000  1.0
  O  O6770  1  0.75000000  0.06250000  0.62500000  1.0
  O  O6771  1  0.75000000  0.06250000  0.87500000  1.0
  O  O6772  1  0.75000000  0.31250000  0.12500000  1.0
  O  O6773  1  0.75000000  0.31250000  0.37500000  1.0
  O  O6774  1  0.75000000  0.31250000  0.62500000  1.0
  O  O6775  1  0.75000000  0.31250000  0.87500000  1.0
  O  O6776  1  0.75000000  0.56250000  0.12500000  1.0
  O  O6777  1  0.75000000  0.56250000  0.37500000  1.0
  O  O6778  1  0.75000000  0.56250000  0.62500000  1.0
  O  O6779  1  0.75000000  0.56250000  0.87500000  1.0
  O  O6780  1  0.75000000  0.81250000  0.12500000  1.0
  O  O6781  1  0.75000000  0.81250000  0.37500000  1.0
  O  O6782  1  0.75000000  0.81250000  0.62500000  1.0
  O  O6783  1  0.75000000  0.81250000  0.87500000  1.0
  O  O6784  1  0.00000000  0.18750000  0.00000000  1.0
  O  O6785  1  0.00000000  0.18750000  0.25000000  1.0
  O  O6786  1  0.00000000  0.18750000  0.50000000  1.0
  O  O6787  1  0.00000000  0.18750000  0.75000000  1.0
  O  O6788  1  0.00000000  0.43750000  0.00000000  1.0
  O  O6789  1  0.00000000  0.43750000  0.25000000  1.0
  O  O6790  1  0.00000000  0.43750000  0.50000000  1.0
  O  O6791  1  0.00000000  0.43750000  0.75000000  1.0
  O  O6792  1  0.00000000  0.68750000  0.00000000  1.0
  O  O6793  1  0.00000000  0.68750000  0.25000000  1.0
  O  O6794  1  0.00000000  0.68750000  0.50000000  1.0
  O  O6795  1  0.00000000  0.68750000  0.75000000  1.0
  O  O6796  1  0.00000000  0.93750000  0.00000000  1.0
  O  O6797  1  0.00000000  0.93750000  0.25000000  1.0
  O  O6798  1  0.00000000  0.93750000  0.50000000  1.0
  O  O6799  1  0.00000000  0.93750000  0.75000000  1.0
  O  O6800  1  0.25000000  0.18750000  0.00000000  1.0
  O  O6801  1  0.25000000  0.18750000  0.25000000  1.0
  O  O6802  1  0.25000000  0.18750000  0.50000000  1.0
  O  O6803  1  0.25000000  0.18750000  0.75000000  1.0
  O  O6804  1  0.25000000  0.43750000  0.00000000  1.0
  O  O6805  1  0.25000000  0.43750000  0.25000000  1.0
  O  O6806  1  0.25000000  0.43750000  0.50000000  1.0
  O  O6807  1  0.25000000  0.43750000  0.75000000  1.0
  O  O6808  1  0.25000000  0.68750000  0.00000000  1.0
  O  O6809  1  0.25000000  0.68750000  0.25000000  1.0
  O  O6810  1  0.25000000  0.68750000  0.50000000  1.0
  O  O6811  1  0.25000000  0.68750000  0.75000000  1.0
  O  O6812  1  0.25000000  0.93750000  0.00000000  1.0
  O  O6813  1  0.25000000  0.93750000  0.25000000  1.0
  O  O6814  1  0.25000000  0.93750000  0.50000000  1.0
  O  O6815  1  0.25000000  0.93750000  0.75000000  1.0
  O  O6816  1  0.50000000  0.18750000  0.00000000  1.0
  O  O6817  1  0.50000000  0.18750000  0.25000000  1.0
  O  O6818  1  0.50000000  0.18750000  0.50000000  1.0
  O  O6819  1  0.50000000  0.18750000  0.75000000  1.0
  O  O6820  1  0.50000000  0.43750000  1.00000000  1.0
  O  O6821  1  0.50000000  0.43750000  0.25000000  1.0
  O  O6822  1  0.50000000  0.43750000  0.50000000  1.0
  O  O6823  1  0.50000000  0.43750000  0.75000000  1.0
  O  O6824  1  0.50000000  0.68750000  0.00000000  1.0
  O  O6825  1  0.50000000  0.68750000  0.25000000  1.0
  O  O6826  1  0.50000000  0.68750000  0.50000000  1.0
  O  O6827  1  0.50000000  0.68750000  0.75000000  1.0
  O  O6828  1  0.50000000  0.93750000  0.00000000  1.0
  O  O6829  1  0.50000000  0.93750000  0.25000000  1.0
  O  O6830  1  0.50000000  0.93750000  0.50000000  1.0
  O  O6831  1  0.50000000  0.93750000  0.75000000  1.0
  O  O6832  1  0.75000000  0.18750000  1.00000000  1.0
  O  O6833  1  0.75000000  0.18750000  0.25000000  1.0
  O  O6834  1  0.75000000  0.18750000  0.50000000  1.0
  O  O6835  1  0.75000000  0.18750000  0.75000000  1.0
  O  O6836  1  0.75000000  0.43750000  0.00000000  1.0
  O  O6837  1  0.75000000  0.43750000  0.25000000  1.0
  O  O6838  1  0.75000000  0.43750000  0.50000000  1.0
  O  O6839  1  0.75000000  0.43750000  0.75000000  1.0
  O  O6840  1  0.75000000  0.68750000  0.00000000  1.0
  O  O6841  1  0.75000000  0.68750000  0.25000000  1.0
  O  O6842  1  0.75000000  0.68750000  0.50000000  1.0
  O  O6843  1  0.75000000  0.68750000  0.75000000  1.0
  O  O6844  1  0.75000000  0.93750000  0.00000000  1.0
  O  O6845  1  0.75000000  0.93750000  0.25000000  1.0
  O  O6846  1  0.75000000  0.93750000  0.50000000  1.0
  O  O6847  1  0.75000000  0.93750000  0.75000000  1.0
  O  O6848  1  0.12500000  0.06250000  0.00000000  1.0
  O  O6849  1  0.12500000  0.06250000  0.25000000  1.0
  O  O6850  1  0.12500000  0.06250000  0.50000000  1.0
  O  O6851  1  0.12500000  0.06250000  0.75000000  1.0
  O  O6852  1  0.12500000  0.31250000  0.00000000  1.0
  O  O6853  1  0.12500000  0.31250000  0.25000000  1.0
  O  O6854  1  0.12500000  0.31250000  0.50000000  1.0
  O  O6855  1  0.12500000  0.31250000  0.75000000  1.0
  O  O6856  1  0.12500000  0.56250000  0.00000000  1.0
  O  O6857  1  0.12500000  0.56250000  0.25000000  1.0
  O  O6858  1  0.12500000  0.56250000  0.50000000  1.0
  O  O6859  1  0.12500000  0.56250000  0.75000000  1.0
  O  O6860  1  0.12500000  0.81250000  1.00000000  1.0
  O  O6861  1  0.12500000  0.81250000  0.25000000  1.0
  O  O6862  1  0.12500000  0.81250000  0.50000000  1.0
  O  O6863  1  0.12500000  0.81250000  0.75000000  1.0
  O  O6864  1  0.37500000  0.06250000  0.00000000  1.0
  O  O6865  1  0.37500000  0.06250000  0.25000000  1.0
  O  O6866  1  0.37500000  0.06250000  0.50000000  1.0
  O  O6867  1  0.37500000  0.06250000  0.75000000  1.0
  O  O6868  1  0.37500000  0.31250000  0.00000000  1.0
  O  O6869  1  0.37500000  0.31250000  0.25000000  1.0
  O  O6870  1  0.37500000  0.31250000  0.50000000  1.0
  O  O6871  1  0.37500000  0.31250000  0.75000000  1.0
  O  O6872  1  0.37500000  0.56250000  0.00000000  1.0
  O  O6873  1  0.37500000  0.56250000  0.25000000  1.0
  O  O6874  1  0.37500000  0.56250000  0.50000000  1.0
  O  O6875  1  0.37500000  0.56250000  0.75000000  1.0
  O  O6876  1  0.37500000  0.81250000  0.00000000  1.0
  O  O6877  1  0.37500000  0.81250000  0.25000000  1.0
  O  O6878  1  0.37500000  0.81250000  0.50000000  1.0
  O  O6879  1  0.37500000  0.81250000  0.75000000  1.0
  O  O6880  1  0.62500000  0.06250000  0.00000000  1.0
  O  O6881  1  0.62500000  0.06250000  0.25000000  1.0
  O  O6882  1  0.62500000  0.06250000  0.50000000  1.0
  O  O6883  1  0.62500000  0.06250000  0.75000000  1.0
  O  O6884  1  0.62500000  0.31250000  1.00000000  1.0
  O  O6885  1  0.62500000  0.31250000  0.25000000  1.0
  O  O6886  1  0.62500000  0.31250000  0.50000000  1.0
  O  O6887  1  0.62500000  0.31250000  0.75000000  1.0
  O  O6888  1  0.62500000  0.56250000  0.00000000  1.0
  O  O6889  1  0.62500000  0.56250000  0.25000000  1.0
  O  O6890  1  0.62500000  0.56250000  0.50000000  1.0
  O  O6891  1  0.62500000  0.56250000  0.75000000  1.0
  O  O6892  1  0.62500000  0.81250000  0.00000000  1.0
  O  O6893  1  0.62500000  0.81250000  0.25000000  1.0
  O  O6894  1  0.62500000  0.81250000  0.50000000  1.0
  O  O6895  1  0.62500000  0.81250000  0.75000000  1.0
  O  O6896  1  0.87500000  0.06250000  1.00000000  1.0
  O  O6897  1  0.87500000  0.06250000  0.25000000  1.0
  O  O6898  1  0.87500000  0.06250000  0.50000000  1.0
  O  O6899  1  0.87500000  0.06250000  0.75000000  1.0
  O  O6900  1  0.87500000  0.31250000  0.00000000  1.0
  O  O6901  1  0.87500000  0.31250000  0.25000000  1.0
  O  O6902  1  0.87500000  0.31250000  0.50000000  1.0
  O  O6903  1  0.87500000  0.31250000  0.75000000  1.0
  O  O6904  1  0.87500000  0.56250000  0.00000000  1.0
  O  O6905  1  0.87500000  0.56250000  0.25000000  1.0
  O  O6906  1  0.87500000  0.56250000  0.50000000  1.0
  O  O6907  1  0.87500000  0.56250000  0.75000000  1.0
  O  O6908  1  0.87500000  0.81250000  0.00000000  1.0
  O  O6909  1  0.87500000  0.81250000  0.25000000  1.0
  O  O6910  1  0.87500000  0.81250000  0.50000000  1.0
  O  O6911  1  0.87500000  0.81250000  0.75000000  1.0
  O  O6912  1  0.12500000  0.12500000  0.06250000  1.0
  O  O6913  1  0.12500000  0.12500000  0.31250000  1.0
  O  O6914  1  0.12500000  0.12500000  0.56250000  1.0
  O  O6915  1  0.12500000  0.12500000  0.81250000  1.0
  O  O6916  1  0.12500000  0.37500000  0.06250000  1.0
  O  O6917  1  0.12500000  0.37500000  0.31250000  1.0
  O  O6918  1  0.12500000  0.37500000  0.56250000  1.0
  O  O6919  1  0.12500000  0.37500000  0.81250000  1.0
  O  O6920  1  0.12500000  0.62500000  0.06250000  1.0
  O  O6921  1  0.12500000  0.62500000  0.31250000  1.0
  O  O6922  1  0.12500000  0.62500000  0.56250000  1.0
  O  O6923  1  0.12500000  0.62500000  0.81250000  1.0
  O  O6924  1  0.12500000  0.87500000  0.06250000  1.0
  O  O6925  1  0.12500000  0.87500000  0.31250000  1.0
  O  O6926  1  0.12500000  0.87500000  0.56250000  1.0
  O  O6927  1  0.12500000  0.87500000  0.81250000  1.0
  O  O6928  1  0.37500000  0.12500000  0.06250000  1.0
  O  O6929  1  0.37500000  0.12500000  0.31250000  1.0
  O  O6930  1  0.37500000  0.12500000  0.56250000  1.0
  O  O6931  1  0.37500000  0.12500000  0.81250000  1.0
  O  O6932  1  0.37500000  0.37500000  0.06250000  1.0
  O  O6933  1  0.37500000  0.37500000  0.31250000  1.0
  O  O6934  1  0.37500000  0.37500000  0.56250000  1.0
  O  O6935  1  0.37500000  0.37500000  0.81250000  1.0
  O  O6936  1  0.37500000  0.62500000  0.06250000  1.0
  O  O6937  1  0.37500000  0.62500000  0.31250000  1.0
  O  O6938  1  0.37500000  0.62500000  0.56250000  1.0
  O  O6939  1  0.37500000  0.62500000  0.81250000  1.0
  O  O6940  1  0.37500000  0.87500000  0.06250000  1.0
  O  O6941  1  0.37500000  0.87500000  0.31250000  1.0
  O  O6942  1  0.37500000  0.87500000  0.56250000  1.0
  O  O6943  1  0.37500000  0.87500000  0.81250000  1.0
  O  O6944  1  0.62500000  0.12500000  0.06250000  1.0
  O  O6945  1  0.62500000  0.12500000  0.31250000  1.0
  O  O6946  1  0.62500000  0.12500000  0.56250000  1.0
  O  O6947  1  0.62500000  0.12500000  0.81250000  1.0
  O  O6948  1  0.62500000  0.37500000  0.06250000  1.0
  O  O6949  1  0.62500000  0.37500000  0.31250000  1.0
  O  O6950  1  0.62500000  0.37500000  0.56250000  1.0
  O  O6951  1  0.62500000  0.37500000  0.81250000  1.0
  O  O6952  1  0.62500000  0.62500000  0.06250000  1.0
  O  O6953  1  0.62500000  0.62500000  0.31250000  1.0
  O  O6954  1  0.62500000  0.62500000  0.56250000  1.0
  O  O6955  1  0.62500000  0.62500000  0.81250000  1.0
  O  O6956  1  0.62500000  0.87500000  0.06250000  1.0
  O  O6957  1  0.62500000  0.87500000  0.31250000  1.0
  O  O6958  1  0.62500000  0.87500000  0.56250000  1.0
  O  O6959  1  0.62500000  0.87500000  0.81250000  1.0
  O  O6960  1  0.87500000  0.12500000  0.06250000  1.0
  O  O6961  1  0.87500000  0.12500000  0.31250000  1.0
  O  O6962  1  0.87500000  0.12500000  0.56250000  1.0
  O  O6963  1  0.87500000  0.12500000  0.81250000  1.0
  O  O6964  1  0.87500000  0.37500000  0.06250000  1.0
  O  O6965  1  0.87500000  0.37500000  0.31250000  1.0
  O  O6966  1  0.87500000  0.37500000  0.56250000  1.0
  O  O6967  1  0.87500000  0.37500000  0.81250000  1.0
  O  O6968  1  0.87500000  0.62500000  0.06250000  1.0
  O  O6969  1  0.87500000  0.62500000  0.31250000  1.0
  O  O6970  1  0.87500000  0.62500000  0.56250000  1.0
  O  O6971  1  0.87500000  0.62500000  0.81250000  1.0
  O  O6972  1  0.87500000  0.87500000  0.06250000  1.0
  O  O6973  1  0.87500000  0.87500000  0.31250000  1.0
  O  O6974  1  0.87500000  0.87500000  0.56250000  1.0
  O  O6975  1  0.87500000  0.87500000  0.81250000  1.0
  O  O6976  1  0.00000000  0.00000000  0.06250000  1.0
  O  O6977  1  0.00000000  0.00000000  0.31250000  1.0
  O  O6978  1  0.00000000  0.00000000  0.56250000  1.0
  O  O6979  1  0.00000000  0.00000000  0.81250000  1.0
  O  O6980  1  0.00000000  0.25000000  0.06250000  1.0
  O  O6981  1  0.00000000  0.25000000  0.31250000  1.0
  O  O6982  1  0.00000000  0.25000000  0.56250000  1.0
  O  O6983  1  0.00000000  0.25000000  0.81250000  1.0
  O  O6984  1  0.00000000  0.50000000  0.06250000  1.0
  O  O6985  1  0.00000000  0.50000000  0.31250000  1.0
  O  O6986  1  0.00000000  0.50000000  0.56250000  1.0
  O  O6987  1  0.00000000  0.50000000  0.81250000  1.0
  O  O6988  1  0.00000000  0.75000000  0.06250000  1.0
  O  O6989  1  0.00000000  0.75000000  0.31250000  1.0
  O  O6990  1  0.00000000  0.75000000  0.56250000  1.0
  O  O6991  1  0.00000000  0.75000000  0.81250000  1.0
  O  O6992  1  0.25000000  0.00000000  0.06250000  1.0
  O  O6993  1  0.25000000  0.00000000  0.31250000  1.0
  O  O6994  1  0.25000000  0.00000000  0.56250000  1.0
  O  O6995  1  0.25000000  0.00000000  0.81250000  1.0
  O  O6996  1  0.25000000  0.25000000  0.06250000  1.0
  O  O6997  1  0.25000000  0.25000000  0.31250000  1.0
  O  O6998  1  0.25000000  0.25000000  0.56250000  1.0
  O  O6999  1  0.25000000  0.25000000  0.81250000  1.0
  O  O7000  1  0.25000000  0.50000000  0.06250000  1.0
  O  O7001  1  0.25000000  0.50000000  0.31250000  1.0
  O  O7002  1  0.25000000  0.50000000  0.56250000  1.0
  O  O7003  1  0.25000000  0.50000000  0.81250000  1.0
  O  O7004  1  0.25000000  0.75000000  0.06250000  1.0
  O  O7005  1  0.25000000  0.75000000  0.31250000  1.0
  O  O7006  1  0.25000000  0.75000000  0.56250000  1.0
  O  O7007  1  0.25000000  0.75000000  0.81250000  1.0
  O  O7008  1  0.50000000  0.00000000  0.06250000  1.0
  O  O7009  1  0.50000000  0.00000000  0.31250000  1.0
  O  O7010  1  0.50000000  0.00000000  0.56250000  1.0
  O  O7011  1  0.50000000  0.00000000  0.81250000  1.0
  O  O7012  1  0.50000000  0.25000000  0.06250000  1.0
  O  O7013  1  0.50000000  0.25000000  0.31250000  1.0
  O  O7014  1  0.50000000  0.25000000  0.56250000  1.0
  O  O7015  1  0.50000000  0.25000000  0.81250000  1.0
  O  O7016  1  0.50000000  0.50000000  0.06250000  1.0
  O  O7017  1  0.50000000  0.50000000  0.31250000  1.0
  O  O7018  1  0.50000000  0.50000000  0.56250000  1.0
  O  O7019  1  0.50000000  0.50000000  0.81250000  1.0
  O  O7020  1  0.50000000  0.75000000  0.06250000  1.0
  O  O7021  1  0.50000000  0.75000000  0.31250000  1.0
  O  O7022  1  0.50000000  0.75000000  0.56250000  1.0
  O  O7023  1  0.50000000  0.75000000  0.81250000  1.0
  O  O7024  1  0.75000000  0.00000000  0.06250000  1.0
  O  O7025  1  0.75000000  0.00000000  0.31250000  1.0
  O  O7026  1  0.75000000  0.00000000  0.56250000  1.0
  O  O7027  1  0.75000000  0.00000000  0.81250000  1.0
  O  O7028  1  0.75000000  0.25000000  0.06250000  1.0
  O  O7029  1  0.75000000  0.25000000  0.31250000  1.0
  O  O7030  1  0.75000000  0.25000000  0.56250000  1.0
  O  O7031  1  0.75000000  0.25000000  0.81250000  1.0
  O  O7032  1  0.75000000  0.50000000  0.06250000  1.0
  O  O7033  1  0.75000000  0.50000000  0.31250000  1.0
  O  O7034  1  0.75000000  0.50000000  0.56250000  1.0
  O  O7035  1  0.75000000  0.50000000  0.81250000  1.0
  O  O7036  1  0.75000000  0.75000000  0.06250000  1.0
  O  O7037  1  0.75000000  0.75000000  0.31250000  1.0
  O  O7038  1  0.75000000  0.75000000  0.56250000  1.0
  O  O7039  1  0.75000000  0.75000000  0.81250000  1.0
  O  O7040  1  0.00000000  0.12500000  0.18750000  1.0
  O  O7041  1  0.00000000  0.12500000  0.43750000  1.0
  O  O7042  1  0.00000000  0.12500000  0.68750000  1.0
  O  O7043  1  0.00000000  0.12500000  0.93750000  1.0
  O  O7044  1  0.00000000  0.37500000  0.18750000  1.0
  O  O7045  1  0.00000000  0.37500000  0.43750000  1.0
  O  O7046  1  0.00000000  0.37500000  0.68750000  1.0
  O  O7047  1  0.00000000  0.37500000  0.93750000  1.0
  O  O7048  1  0.00000000  0.62500000  0.18750000  1.0
  O  O7049  1  0.00000000  0.62500000  0.43750000  1.0
  O  O7050  1  0.00000000  0.62500000  0.68750000  1.0
  O  O7051  1  0.00000000  0.62500000  0.93750000  1.0
  O  O7052  1  0.00000000  0.87500000  0.18750000  1.0
  O  O7053  1  0.00000000  0.87500000  0.43750000  1.0
  O  O7054  1  0.00000000  0.87500000  0.68750000  1.0
  O  O7055  1  0.00000000  0.87500000  0.93750000  1.0
  O  O7056  1  0.25000000  0.12500000  0.18750000  1.0
  O  O7057  1  0.25000000  0.12500000  0.43750000  1.0
  O  O7058  1  0.25000000  0.12500000  0.68750000  1.0
  O  O7059  1  0.25000000  0.12500000  0.93750000  1.0
  O  O7060  1  0.25000000  0.37500000  0.18750000  1.0
  O  O7061  1  0.25000000  0.37500000  0.43750000  1.0
  O  O7062  1  0.25000000  0.37500000  0.68750000  1.0
  O  O7063  1  0.25000000  0.37500000  0.93750000  1.0
  O  O7064  1  0.25000000  0.62500000  0.18750000  1.0
  O  O7065  1  0.25000000  0.62500000  0.43750000  1.0
  O  O7066  1  0.25000000  0.62500000  0.68750000  1.0
  O  O7067  1  0.25000000  0.62500000  0.93750000  1.0
  O  O7068  1  0.25000000  0.87500000  0.18750000  1.0
  O  O7069  1  0.25000000  0.87500000  0.43750000  1.0
  O  O7070  1  0.25000000  0.87500000  0.68750000  1.0
  O  O7071  1  0.25000000  0.87500000  0.93750000  1.0
  O  O7072  1  0.50000000  0.12500000  0.18750000  1.0
  O  O7073  1  0.50000000  0.12500000  0.43750000  1.0
  O  O7074  1  0.50000000  0.12500000  0.68750000  1.0
  O  O7075  1  0.50000000  0.12500000  0.93750000  1.0
  O  O7076  1  0.50000000  0.37500000  0.18750000  1.0
  O  O7077  1  0.50000000  0.37500000  0.43750000  1.0
  O  O7078  1  0.50000000  0.37500000  0.68750000  1.0
  O  O7079  1  0.50000000  0.37500000  0.93750000  1.0
  O  O7080  1  0.50000000  0.62500000  0.18750000  1.0
  O  O7081  1  0.50000000  0.62500000  0.43750000  1.0
  O  O7082  1  0.50000000  0.62500000  0.68750000  1.0
  O  O7083  1  0.50000000  0.62500000  0.93750000  1.0
  O  O7084  1  0.50000000  0.87500000  0.18750000  1.0
  O  O7085  1  0.50000000  0.87500000  0.43750000  1.0
  O  O7086  1  0.50000000  0.87500000  0.68750000  1.0
  O  O7087  1  0.50000000  0.87500000  0.93750000  1.0
  O  O7088  1  0.75000000  0.12500000  0.18750000  1.0
  O  O7089  1  0.75000000  0.12500000  0.43750000  1.0
  O  O7090  1  0.75000000  0.12500000  0.68750000  1.0
  O  O7091  1  0.75000000  0.12500000  0.93750000  1.0
  O  O7092  1  0.75000000  0.37500000  0.18750000  1.0
  O  O7093  1  0.75000000  0.37500000  0.43750000  1.0
  O  O7094  1  0.75000000  0.37500000  0.68750000  1.0
  O  O7095  1  0.75000000  0.37500000  0.93750000  1.0
  O  O7096  1  0.75000000  0.62500000  0.18750000  1.0
  O  O7097  1  0.75000000  0.62500000  0.43750000  1.0
  O  O7098  1  0.75000000  0.62500000  0.68750000  1.0
  O  O7099  1  0.75000000  0.62500000  0.93750000  1.0
  O  O7100  1  0.75000000  0.87500000  0.18750000  1.0
  O  O7101  1  0.75000000  0.87500000  0.43750000  1.0
  O  O7102  1  0.75000000  0.87500000  0.68750000  1.0
  O  O7103  1  0.75000000  0.87500000  0.93750000  1.0
  O  O7104  1  0.12500000  0.00000000  0.18750000  1.0
  O  O7105  1  0.12500000  0.00000000  0.43750000  1.0
  O  O7106  1  0.12500000  0.00000000  0.68750000  1.0
  O  O7107  1  0.12500000  0.00000000  0.93750000  1.0
  O  O7108  1  0.12500000  0.25000000  0.18750000  1.0
  O  O7109  1  0.12500000  0.25000000  0.43750000  1.0
  O  O7110  1  0.12500000  0.25000000  0.68750000  1.0
  O  O7111  1  0.12500000  0.25000000  0.93750000  1.0
  O  O7112  1  0.12500000  0.50000000  0.18750000  1.0
  O  O7113  1  0.12500000  0.50000000  0.43750000  1.0
  O  O7114  1  0.12500000  0.50000000  0.68750000  1.0
  O  O7115  1  0.12500000  0.50000000  0.93750000  1.0
  O  O7116  1  0.12500000  0.75000000  0.18750000  1.0
  O  O7117  1  0.12500000  0.75000000  0.43750000  1.0
  O  O7118  1  0.12500000  0.75000000  0.68750000  1.0
  O  O7119  1  0.12500000  0.75000000  0.93750000  1.0
  O  O7120  1  0.37500000  0.00000000  0.18750000  1.0
  O  O7121  1  0.37500000  0.00000000  0.43750000  1.0
  O  O7122  1  0.37500000  0.00000000  0.68750000  1.0
  O  O7123  1  0.37500000  0.00000000  0.93750000  1.0
  O  O7124  1  0.37500000  0.25000000  0.18750000  1.0
  O  O7125  1  0.37500000  0.25000000  0.43750000  1.0
  O  O7126  1  0.37500000  0.25000000  0.68750000  1.0
  O  O7127  1  0.37500000  0.25000000  0.93750000  1.0
  O  O7128  1  0.37500000  0.50000000  0.18750000  1.0
  O  O7129  1  0.37500000  0.50000000  0.43750000  1.0
  O  O7130  1  0.37500000  0.50000000  0.68750000  1.0
  O  O7131  1  0.37500000  0.50000000  0.93750000  1.0
  O  O7132  1  0.37500000  0.75000000  0.18750000  1.0
  O  O7133  1  0.37500000  0.75000000  0.43750000  1.0
  O  O7134  1  0.37500000  0.75000000  0.68750000  1.0
  O  O7135  1  0.37500000  0.75000000  0.93750000  1.0
  O  O7136  1  0.62500000  0.00000000  0.18750000  1.0
  O  O7137  1  0.62500000  0.00000000  0.43750000  1.0
  O  O7138  1  0.62500000  0.00000000  0.68750000  1.0
  O  O7139  1  0.62500000  0.00000000  0.93750000  1.0
  O  O7140  1  0.62500000  0.25000000  0.18750000  1.0
  O  O7141  1  0.62500000  0.25000000  0.43750000  1.0
  O  O7142  1  0.62500000  0.25000000  0.68750000  1.0
  O  O7143  1  0.62500000  0.25000000  0.93750000  1.0
  O  O7144  1  0.62500000  0.50000000  0.18750000  1.0
  O  O7145  1  0.62500000  0.50000000  0.43750000  1.0
  O  O7146  1  0.62500000  0.50000000  0.68750000  1.0
  O  O7147  1  0.62500000  0.50000000  0.93750000  1.0
  O  O7148  1  0.62500000  0.75000000  0.18750000  1.0
  O  O7149  1  0.62500000  0.75000000  0.43750000  1.0
  O  O7150  1  0.62500000  0.75000000  0.68750000  1.0
  O  O7151  1  0.62500000  0.75000000  0.93750000  1.0
  O  O7152  1  0.87500000  0.00000000  0.18750000  1.0
  O  O7153  1  0.87500000  0.00000000  0.43750000  1.0
  O  O7154  1  0.87500000  0.00000000  0.68750000  1.0
  O  O7155  1  0.87500000  0.00000000  0.93750000  1.0
  O  O7156  1  0.87500000  0.25000000  0.18750000  1.0
  O  O7157  1  0.87500000  0.25000000  0.43750000  1.0
  O  O7158  1  0.87500000  0.25000000  0.68750000  1.0
  O  O7159  1  0.87500000  0.25000000  0.93750000  1.0
  O  O7160  1  0.87500000  0.50000000  0.18750000  1.0
  O  O7161  1  0.87500000  0.50000000  0.43750000  1.0
  O  O7162  1  0.87500000  0.50000000  0.68750000  1.0
  O  O7163  1  0.87500000  0.50000000  0.93750000  1.0
  O  O7164  1  0.87500000  0.75000000  0.18750000  1.0
  O  O7165  1  0.87500000  0.75000000  0.43750000  1.0
  O  O7166  1  0.87500000  0.75000000  0.68750000  1.0
  O  O7167  1  0.87500000  0.75000000  0.93750000  1.0
  O  O7168  1  0.12500000  0.12500000  0.18750000  1.0
  O  O7169  1  0.12500000  0.12500000  0.43750000  1.0
  O  O7170  1  0.12500000  0.12500000  0.68750000  1.0
  O  O7171  1  0.12500000  0.12500000  0.93750000  1.0
  O  O7172  1  0.12500000  0.37500000  0.18750000  1.0
  O  O7173  1  0.12500000  0.37500000  0.43750000  1.0
  O  O7174  1  0.12500000  0.37500000  0.68750000  1.0
  O  O7175  1  0.12500000  0.37500000  0.93750000  1.0
  O  O7176  1  0.12500000  0.62500000  0.18750000  1.0
  O  O7177  1  0.12500000  0.62500000  0.43750000  1.0
  O  O7178  1  0.12500000  0.62500000  0.68750000  1.0
  O  O7179  1  0.12500000  0.62500000  0.93750000  1.0
  O  O7180  1  0.12500000  0.87500000  0.18750000  1.0
  O  O7181  1  0.12500000  0.87500000  0.43750000  1.0
  O  O7182  1  0.12500000  0.87500000  0.68750000  1.0
  O  O7183  1  0.12500000  0.87500000  0.93750000  1.0
  O  O7184  1  0.37500000  0.12500000  0.18750000  1.0
  O  O7185  1  0.37500000  0.12500000  0.43750000  1.0
  O  O7186  1  0.37500000  0.12500000  0.68750000  1.0
  O  O7187  1  0.37500000  0.12500000  0.93750000  1.0
  O  O7188  1  0.37500000  0.37500000  0.18750000  1.0
  O  O7189  1  0.37500000  0.37500000  0.43750000  1.0
  O  O7190  1  0.37500000  0.37500000  0.68750000  1.0
  O  O7191  1  0.37500000  0.37500000  0.93750000  1.0
  O  O7192  1  0.37500000  0.62500000  0.18750000  1.0
  O  O7193  1  0.37500000  0.62500000  0.43750000  1.0
  O  O7194  1  0.37500000  0.62500000  0.68750000  1.0
  O  O7195  1  0.37500000  0.62500000  0.93750000  1.0
  O  O7196  1  0.37500000  0.87500000  0.18750000  1.0
  O  O7197  1  0.37500000  0.87500000  0.43750000  1.0
  O  O7198  1  0.37500000  0.87500000  0.68750000  1.0
  O  O7199  1  0.37500000  0.87500000  0.93750000  1.0
  O  O7200  1  0.62500000  0.12500000  0.18750000  1.0
  O  O7201  1  0.62500000  0.12500000  0.43750000  1.0
  O  O7202  1  0.62500000  0.12500000  0.68750000  1.0
  O  O7203  1  0.62500000  0.12500000  0.93750000  1.0
  O  O7204  1  0.62500000  0.37500000  0.18750000  1.0
  O  O7205  1  0.62500000  0.37500000  0.43750000  1.0
  O  O7206  1  0.62500000  0.37500000  0.68750000  1.0
  O  O7207  1  0.62500000  0.37500000  0.93750000  1.0
  O  O7208  1  0.62500000  0.62500000  0.18750000  1.0
  O  O7209  1  0.62500000  0.62500000  0.43750000  1.0
  O  O7210  1  0.62500000  0.62500000  0.68750000  1.0
  O  O7211  1  0.62500000  0.62500000  0.93750000  1.0
  O  O7212  1  0.62500000  0.87500000  0.18750000  1.0
  O  O7213  1  0.62500000  0.87500000  0.43750000  1.0
  O  O7214  1  0.62500000  0.87500000  0.68750000  1.0
  O  O7215  1  0.62500000  0.87500000  0.93750000  1.0
  O  O7216  1  0.87500000  0.12500000  0.18750000  1.0
  O  O7217  1  0.87500000  0.12500000  0.43750000  1.0
  O  O7218  1  0.87500000  0.12500000  0.68750000  1.0
  O  O7219  1  0.87500000  0.12500000  0.93750000  1.0
  O  O7220  1  0.87500000  0.37500000  0.18750000  1.0
  O  O7221  1  0.87500000  0.37500000  0.43750000  1.0
  O  O7222  1  0.87500000  0.37500000  0.68750000  1.0
  O  O7223  1  0.87500000  0.37500000  0.93750000  1.0
  O  O7224  1  0.87500000  0.62500000  0.18750000  1.0
  O  O7225  1  0.87500000  0.62500000  0.43750000  1.0
  O  O7226  1  0.87500000  0.62500000  0.68750000  1.0
  O  O7227  1  0.87500000  0.62500000  0.93750000  1.0
  O  O7228  1  0.87500000  0.87500000  0.18750000  1.0
  O  O7229  1  0.87500000  0.87500000  0.43750000  1.0
  O  O7230  1  0.87500000  0.87500000  0.68750000  1.0
  O  O7231  1  0.87500000  0.87500000  0.93750000  1.0
  O  O7232  1  0.00000000  0.00000000  0.18750000  1.0
  O  O7233  1  0.00000000  0.00000000  0.43750000  1.0
  O  O7234  1  0.00000000  0.00000000  0.68750000  1.0
  O  O7235  1  0.00000000  0.00000000  0.93750000  1.0
  O  O7236  1  0.00000000  0.25000000  0.18750000  1.0
  O  O7237  1  0.00000000  0.25000000  0.43750000  1.0
  O  O7238  1  0.00000000  0.25000000  0.68750000  1.0
  O  O7239  1  0.00000000  0.25000000  0.93750000  1.0
  O  O7240  1  0.00000000  0.50000000  0.18750000  1.0
  O  O7241  1  0.00000000  0.50000000  0.43750000  1.0
  O  O7242  1  0.00000000  0.50000000  0.68750000  1.0
  O  O7243  1  0.00000000  0.50000000  0.93750000  1.0
  O  O7244  1  0.00000000  0.75000000  0.18750000  1.0
  O  O7245  1  0.00000000  0.75000000  0.43750000  1.0
  O  O7246  1  0.00000000  0.75000000  0.68750000  1.0
  O  O7247  1  0.00000000  0.75000000  0.93750000  1.0
  O  O7248  1  0.25000000  0.00000000  0.18750000  1.0
  O  O7249  1  0.25000000  0.00000000  0.43750000  1.0
  O  O7250  1  0.25000000  0.00000000  0.68750000  1.0
  O  O7251  1  0.25000000  0.00000000  0.93750000  1.0
  O  O7252  1  0.25000000  0.25000000  0.18750000  1.0
  O  O7253  1  0.25000000  0.25000000  0.43750000  1.0
  O  O7254  1  0.25000000  0.25000000  0.68750000  1.0
  O  O7255  1  0.25000000  0.25000000  0.93750000  1.0
  O  O7256  1  0.25000000  0.50000000  0.18750000  1.0
  O  O7257  1  0.25000000  0.50000000  0.43750000  1.0
  O  O7258  1  0.25000000  0.50000000  0.68750000  1.0
  O  O7259  1  0.25000000  0.50000000  0.93750000  1.0
  O  O7260  1  0.25000000  0.75000000  0.18750000  1.0
  O  O7261  1  0.25000000  0.75000000  0.43750000  1.0
  O  O7262  1  0.25000000  0.75000000  0.68750000  1.0
  O  O7263  1  0.25000000  0.75000000  0.93750000  1.0
  O  O7264  1  0.50000000  0.00000000  0.18750000  1.0
  O  O7265  1  0.50000000  0.00000000  0.43750000  1.0
  O  O7266  1  0.50000000  0.00000000  0.68750000  1.0
  O  O7267  1  0.50000000  0.00000000  0.93750000  1.0
  O  O7268  1  0.50000000  0.25000000  0.18750000  1.0
  O  O7269  1  0.50000000  0.25000000  0.43750000  1.0
  O  O7270  1  0.50000000  0.25000000  0.68750000  1.0
  O  O7271  1  0.50000000  0.25000000  0.93750000  1.0
  O  O7272  1  0.50000000  0.50000000  0.18750000  1.0
  O  O7273  1  0.50000000  0.50000000  0.43750000  1.0
  O  O7274  1  0.50000000  0.50000000  0.68750000  1.0
  O  O7275  1  0.50000000  0.50000000  0.93750000  1.0
  O  O7276  1  0.50000000  0.75000000  0.18750000  1.0
  O  O7277  1  0.50000000  0.75000000  0.43750000  1.0
  O  O7278  1  0.50000000  0.75000000  0.68750000  1.0
  O  O7279  1  0.50000000  0.75000000  0.93750000  1.0
  O  O7280  1  0.75000000  0.00000000  0.18750000  1.0
  O  O7281  1  0.75000000  0.00000000  0.43750000  1.0
  O  O7282  1  0.75000000  0.00000000  0.68750000  1.0
  O  O7283  1  0.75000000  0.00000000  0.93750000  1.0
  O  O7284  1  0.75000000  0.25000000  0.18750000  1.0
  O  O7285  1  0.75000000  0.25000000  0.43750000  1.0
  O  O7286  1  0.75000000  0.25000000  0.68750000  1.0
  O  O7287  1  0.75000000  0.25000000  0.93750000  1.0
  O  O7288  1  0.75000000  0.50000000  0.18750000  1.0
  O  O7289  1  0.75000000  0.50000000  0.43750000  1.0
  O  O7290  1  0.75000000  0.50000000  0.68750000  1.0
  O  O7291  1  0.75000000  0.50000000  0.93750000  1.0
  O  O7292  1  0.75000000  0.75000000  0.18750000  1.0
  O  O7293  1  0.75000000  0.75000000  0.43750000  1.0
  O  O7294  1  0.75000000  0.75000000  0.68750000  1.0
  O  O7295  1  0.75000000  0.75000000  0.93750000  1.0
  O  O7296  1  0.00000000  0.12500000  0.06250000  1.0
  O  O7297  1  0.00000000  0.12500000  0.31250000  1.0
  O  O7298  1  0.00000000  0.12500000  0.56250000  1.0
  O  O7299  1  0.00000000  0.12500000  0.81250000  1.0
  O  O7300  1  0.00000000  0.37500000  0.06250000  1.0
  O  O7301  1  0.00000000  0.37500000  0.31250000  1.0
  O  O7302  1  0.00000000  0.37500000  0.56250000  1.0
  O  O7303  1  0.00000000  0.37500000  0.81250000  1.0
  O  O7304  1  0.00000000  0.62500000  0.06250000  1.0
  O  O7305  1  0.00000000  0.62500000  0.31250000  1.0
  O  O7306  1  0.00000000  0.62500000  0.56250000  1.0
  O  O7307  1  0.00000000  0.62500000  0.81250000  1.0
  O  O7308  1  0.00000000  0.87500000  0.06250000  1.0
  O  O7309  1  0.00000000  0.87500000  0.31250000  1.0
  O  O7310  1  0.00000000  0.87500000  0.56250000  1.0
  O  O7311  1  0.00000000  0.87500000  0.81250000  1.0
  O  O7312  1  0.25000000  0.12500000  0.06250000  1.0
  O  O7313  1  0.25000000  0.12500000  0.31250000  1.0
  O  O7314  1  0.25000000  0.12500000  0.56250000  1.0
  O  O7315  1  0.25000000  0.12500000  0.81250000  1.0
  O  O7316  1  0.25000000  0.37500000  0.06250000  1.0
  O  O7317  1  0.25000000  0.37500000  0.31250000  1.0
  O  O7318  1  0.25000000  0.37500000  0.56250000  1.0
  O  O7319  1  0.25000000  0.37500000  0.81250000  1.0
  O  O7320  1  0.25000000  0.62500000  0.06250000  1.0
  O  O7321  1  0.25000000  0.62500000  0.31250000  1.0
  O  O7322  1  0.25000000  0.62500000  0.56250000  1.0
  O  O7323  1  0.25000000  0.62500000  0.81250000  1.0
  O  O7324  1  0.25000000  0.87500000  0.06250000  1.0
  O  O7325  1  0.25000000  0.87500000  0.31250000  1.0
  O  O7326  1  0.25000000  0.87500000  0.56250000  1.0
  O  O7327  1  0.25000000  0.87500000  0.81250000  1.0
  O  O7328  1  0.50000000  0.12500000  0.06250000  1.0
  O  O7329  1  0.50000000  0.12500000  0.31250000  1.0
  O  O7330  1  0.50000000  0.12500000  0.56250000  1.0
  O  O7331  1  0.50000000  0.12500000  0.81250000  1.0
  O  O7332  1  0.50000000  0.37500000  0.06250000  1.0
  O  O7333  1  0.50000000  0.37500000  0.31250000  1.0
  O  O7334  1  0.50000000  0.37500000  0.56250000  1.0
  O  O7335  1  0.50000000  0.37500000  0.81250000  1.0
  O  O7336  1  0.50000000  0.62500000  0.06250000  1.0
  O  O7337  1  0.50000000  0.62500000  0.31250000  1.0
  O  O7338  1  0.50000000  0.62500000  0.56250000  1.0
  O  O7339  1  0.50000000  0.62500000  0.81250000  1.0
  O  O7340  1  0.50000000  0.87500000  0.06250000  1.0
  O  O7341  1  0.50000000  0.87500000  0.31250000  1.0
  O  O7342  1  0.50000000  0.87500000  0.56250000  1.0
  O  O7343  1  0.50000000  0.87500000  0.81250000  1.0
  O  O7344  1  0.75000000  0.12500000  0.06250000  1.0
  O  O7345  1  0.75000000  0.12500000  0.31250000  1.0
  O  O7346  1  0.75000000  0.12500000  0.56250000  1.0
  O  O7347  1  0.75000000  0.12500000  0.81250000  1.0
  O  O7348  1  0.75000000  0.37500000  0.06250000  1.0
  O  O7349  1  0.75000000  0.37500000  0.31250000  1.0
  O  O7350  1  0.75000000  0.37500000  0.56250000  1.0
  O  O7351  1  0.75000000  0.37500000  0.81250000  1.0
  O  O7352  1  0.75000000  0.62500000  0.06250000  1.0
  O  O7353  1  0.75000000  0.62500000  0.31250000  1.0
  O  O7354  1  0.75000000  0.62500000  0.56250000  1.0
  O  O7355  1  0.75000000  0.62500000  0.81250000  1.0
  O  O7356  1  0.75000000  0.87500000  0.06250000  1.0
  O  O7357  1  0.75000000  0.87500000  0.31250000  1.0
  O  O7358  1  0.75000000  0.87500000  0.56250000  1.0
  O  O7359  1  0.75000000  0.87500000  0.81250000  1.0
  O  O7360  1  0.12500000  0.00000000  0.06250000  1.0
  O  O7361  1  0.12500000  0.00000000  0.31250000  1.0
  O  O7362  1  0.12500000  0.00000000  0.56250000  1.0
  O  O7363  1  0.12500000  0.00000000  0.81250000  1.0
  O  O7364  1  0.12500000  0.25000000  0.06250000  1.0
  O  O7365  1  0.12500000  0.25000000  0.31250000  1.0
  O  O7366  1  0.12500000  0.25000000  0.56250000  1.0
  O  O7367  1  0.12500000  0.25000000  0.81250000  1.0
  O  O7368  1  0.12500000  0.50000000  0.06250000  1.0
  O  O7369  1  0.12500000  0.50000000  0.31250000  1.0
  O  O7370  1  0.12500000  0.50000000  0.56250000  1.0
  O  O7371  1  0.12500000  0.50000000  0.81250000  1.0
  O  O7372  1  0.12500000  0.75000000  0.06250000  1.0
  O  O7373  1  0.12500000  0.75000000  0.31250000  1.0
  O  O7374  1  0.12500000  0.75000000  0.56250000  1.0
  O  O7375  1  0.12500000  0.75000000  0.81250000  1.0
  O  O7376  1  0.37500000  0.00000000  0.06250000  1.0
  O  O7377  1  0.37500000  0.00000000  0.31250000  1.0
  O  O7378  1  0.37500000  0.00000000  0.56250000  1.0
  O  O7379  1  0.37500000  0.00000000  0.81250000  1.0
  O  O7380  1  0.37500000  0.25000000  0.06250000  1.0
  O  O7381  1  0.37500000  0.25000000  0.31250000  1.0
  O  O7382  1  0.37500000  0.25000000  0.56250000  1.0
  O  O7383  1  0.37500000  0.25000000  0.81250000  1.0
  O  O7384  1  0.37500000  0.50000000  0.06250000  1.0
  O  O7385  1  0.37500000  0.50000000  0.31250000  1.0
  O  O7386  1  0.37500000  0.50000000  0.56250000  1.0
  O  O7387  1  0.37500000  0.50000000  0.81250000  1.0
  O  O7388  1  0.37500000  0.75000000  0.06250000  1.0
  O  O7389  1  0.37500000  0.75000000  0.31250000  1.0
  O  O7390  1  0.37500000  0.75000000  0.56250000  1.0
  O  O7391  1  0.37500000  0.75000000  0.81250000  1.0
  O  O7392  1  0.62500000  0.00000000  0.06250000  1.0
  O  O7393  1  0.62500000  0.00000000  0.31250000  1.0
  O  O7394  1  0.62500000  0.00000000  0.56250000  1.0
  O  O7395  1  0.62500000  0.00000000  0.81250000  1.0
  O  O7396  1  0.62500000  0.25000000  0.06250000  1.0
  O  O7397  1  0.62500000  0.25000000  0.31250000  1.0
  O  O7398  1  0.62500000  0.25000000  0.56250000  1.0
  O  O7399  1  0.62500000  0.25000000  0.81250000  1.0
  O  O7400  1  0.62500000  0.50000000  0.06250000  1.0
  O  O7401  1  0.62500000  0.50000000  0.31250000  1.0
  O  O7402  1  0.62500000  0.50000000  0.56250000  1.0
  O  O7403  1  0.62500000  0.50000000  0.81250000  1.0
  O  O7404  1  0.62500000  0.75000000  0.06250000  1.0
  O  O7405  1  0.62500000  0.75000000  0.31250000  1.0
  O  O7406  1  0.62500000  0.75000000  0.56250000  1.0
  O  O7407  1  0.62500000  0.75000000  0.81250000  1.0
  O  O7408  1  0.87500000  0.00000000  0.06250000  1.0
  O  O7409  1  0.87500000  0.00000000  0.31250000  1.0
  O  O7410  1  0.87500000  0.00000000  0.56250000  1.0
  O  O7411  1  0.87500000  0.00000000  0.81250000  1.0
  O  O7412  1  0.87500000  0.25000000  0.06250000  1.0
  O  O7413  1  0.87500000  0.25000000  0.31250000  1.0
  O  O7414  1  0.87500000  0.25000000  0.56250000  1.0
  O  O7415  1  0.87500000  0.25000000  0.81250000  1.0
  O  O7416  1  0.87500000  0.50000000  0.06250000  1.0
  O  O7417  1  0.87500000  0.50000000  0.31250000  1.0
  O  O7418  1  0.87500000  0.50000000  0.56250000  1.0
  O  O7419  1  0.87500000  0.50000000  0.81250000  1.0
  O  O7420  1  0.87500000  0.75000000  0.06250000  1.0
  O  O7421  1  0.87500000  0.75000000  0.31250000  1.0
  O  O7422  1  0.87500000  0.75000000  0.56250000  1.0
  O  O7423  1  0.87500000  0.75000000  0.81250000  1.0
  O  O7424  1  0.12500000  0.06250000  0.12500000  1.0
  O  O7425  1  0.12500000  0.06250000  0.37500000  1.0
  O  O7426  1  0.12500000  0.06250000  0.62500000  1.0
  O  O7427  1  0.12500000  0.06250000  0.87500000  1.0
  O  O7428  1  0.12500000  0.31250000  0.12500000  1.0
  O  O7429  1  0.12500000  0.31250000  0.37500000  1.0
  O  O7430  1  0.12500000  0.31250000  0.62500000  1.0
  O  O7431  1  0.12500000  0.31250000  0.87500000  1.0
  O  O7432  1  0.12500000  0.56250000  0.12500000  1.0
  O  O7433  1  0.12500000  0.56250000  0.37500000  1.0
  O  O7434  1  0.12500000  0.56250000  0.62500000  1.0
  O  O7435  1  0.12500000  0.56250000  0.87500000  1.0
  O  O7436  1  0.12500000  0.81250000  0.12500000  1.0
  O  O7437  1  0.12500000  0.81250000  0.37500000  1.0
  O  O7438  1  0.12500000  0.81250000  0.62500000  1.0
  O  O7439  1  0.12500000  0.81250000  0.87500000  1.0
  O  O7440  1  0.37500000  0.06250000  0.12500000  1.0
  O  O7441  1  0.37500000  0.06250000  0.37500000  1.0
  O  O7442  1  0.37500000  0.06250000  0.62500000  1.0
  O  O7443  1  0.37500000  0.06250000  0.87500000  1.0
  O  O7444  1  0.37500000  0.31250000  0.12500000  1.0
  O  O7445  1  0.37500000  0.31250000  0.37500000  1.0
  O  O7446  1  0.37500000  0.31250000  0.62500000  1.0
  O  O7447  1  0.37500000  0.31250000  0.87500000  1.0
  O  O7448  1  0.37500000  0.56250000  0.12500000  1.0
  O  O7449  1  0.37500000  0.56250000  0.37500000  1.0
  O  O7450  1  0.37500000  0.56250000  0.62500000  1.0
  O  O7451  1  0.37500000  0.56250000  0.87500000  1.0
  O  O7452  1  0.37500000  0.81250000  0.12500000  1.0
  O  O7453  1  0.37500000  0.81250000  0.37500000  1.0
  O  O7454  1  0.37500000  0.81250000  0.62500000  1.0
  O  O7455  1  0.37500000  0.81250000  0.87500000  1.0
  O  O7456  1  0.62500000  0.06250000  0.12500000  1.0
  O  O7457  1  0.62500000  0.06250000  0.37500000  1.0
  O  O7458  1  0.62500000  0.06250000  0.62500000  1.0
  O  O7459  1  0.62500000  0.06250000  0.87500000  1.0
  O  O7460  1  0.62500000  0.31250000  0.12500000  1.0
  O  O7461  1  0.62500000  0.31250000  0.37500000  1.0
  O  O7462  1  0.62500000  0.31250000  0.62500000  1.0
  O  O7463  1  0.62500000  0.31250000  0.87500000  1.0
  O  O7464  1  0.62500000  0.56250000  0.12500000  1.0
  O  O7465  1  0.62500000  0.56250000  0.37500000  1.0
  O  O7466  1  0.62500000  0.56250000  0.62500000  1.0
  O  O7467  1  0.62500000  0.56250000  0.87500000  1.0
  O  O7468  1  0.62500000  0.81250000  0.12500000  1.0
  O  O7469  1  0.62500000  0.81250000  0.37500000  1.0
  O  O7470  1  0.62500000  0.81250000  0.62500000  1.0
  O  O7471  1  0.62500000  0.81250000  0.87500000  1.0
  O  O7472  1  0.87500000  0.06250000  0.12500000  1.0
  O  O7473  1  0.87500000  0.06250000  0.37500000  1.0
  O  O7474  1  0.87500000  0.06250000  0.62500000  1.0
  O  O7475  1  0.87500000  0.06250000  0.87500000  1.0
  O  O7476  1  0.87500000  0.31250000  0.12500000  1.0
  O  O7477  1  0.87500000  0.31250000  0.37500000  1.0
  O  O7478  1  0.87500000  0.31250000  0.62500000  1.0
  O  O7479  1  0.87500000  0.31250000  0.87500000  1.0
  O  O7480  1  0.87500000  0.56250000  0.12500000  1.0
  O  O7481  1  0.87500000  0.56250000  0.37500000  1.0
  O  O7482  1  0.87500000  0.56250000  0.62500000  1.0
  O  O7483  1  0.87500000  0.56250000  0.87500000  1.0
  O  O7484  1  0.87500000  0.81250000  0.12500000  1.0
  O  O7485  1  0.87500000  0.81250000  0.37500000  1.0
  O  O7486  1  0.87500000  0.81250000  0.62500000  1.0
  O  O7487  1  0.87500000  0.81250000  0.87500000  1.0
  O  O7488  1  0.00000000  0.18750000  0.12500000  1.0
  O  O7489  1  0.00000000  0.18750000  0.37500000  1.0
  O  O7490  1  0.00000000  0.18750000  0.62500000  1.0
  O  O7491  1  0.00000000  0.18750000  0.87500000  1.0
  O  O7492  1  0.00000000  0.43750000  0.12500000  1.0
  O  O7493  1  0.00000000  0.43750000  0.37500000  1.0
  O  O7494  1  0.00000000  0.43750000  0.62500000  1.0
  O  O7495  1  0.00000000  0.43750000  0.87500000  1.0
  O  O7496  1  0.00000000  0.68750000  0.12500000  1.0
  O  O7497  1  0.00000000  0.68750000  0.37500000  1.0
  O  O7498  1  0.00000000  0.68750000  0.62500000  1.0
  O  O7499  1  0.00000000  0.68750000  0.87500000  1.0
  O  O7500  1  0.00000000  0.93750000  0.12500000  1.0
  O  O7501  1  0.00000000  0.93750000  0.37500000  1.0
  O  O7502  1  0.00000000  0.93750000  0.62500000  1.0
  O  O7503  1  0.00000000  0.93750000  0.87500000  1.0
  O  O7504  1  0.25000000  0.18750000  0.12500000  1.0
  O  O7505  1  0.25000000  0.18750000  0.37500000  1.0
  O  O7506  1  0.25000000  0.18750000  0.62500000  1.0
  O  O7507  1  0.25000000  0.18750000  0.87500000  1.0
  O  O7508  1  0.25000000  0.43750000  0.12500000  1.0
  O  O7509  1  0.25000000  0.43750000  0.37500000  1.0
  O  O7510  1  0.25000000  0.43750000  0.62500000  1.0
  O  O7511  1  0.25000000  0.43750000  0.87500000  1.0
  O  O7512  1  0.25000000  0.68750000  0.12500000  1.0
  O  O7513  1  0.25000000  0.68750000  0.37500000  1.0
  O  O7514  1  0.25000000  0.68750000  0.62500000  1.0
  O  O7515  1  0.25000000  0.68750000  0.87500000  1.0
  O  O7516  1  0.25000000  0.93750000  0.12500000  1.0
  O  O7517  1  0.25000000  0.93750000  0.37500000  1.0
  O  O7518  1  0.25000000  0.93750000  0.62500000  1.0
  O  O7519  1  0.25000000  0.93750000  0.87500000  1.0
  O  O7520  1  0.50000000  0.18750000  0.12500000  1.0
  O  O7521  1  0.50000000  0.18750000  0.37500000  1.0
  O  O7522  1  0.50000000  0.18750000  0.62500000  1.0
  O  O7523  1  0.50000000  0.18750000  0.87500000  1.0
  O  O7524  1  0.50000000  0.43750000  0.12500000  1.0
  O  O7525  1  0.50000000  0.43750000  0.37500000  1.0
  O  O7526  1  0.50000000  0.43750000  0.62500000  1.0
  O  O7527  1  0.50000000  0.43750000  0.87500000  1.0
  O  O7528  1  0.50000000  0.68750000  0.12500000  1.0
  O  O7529  1  0.50000000  0.68750000  0.37500000  1.0
  O  O7530  1  0.50000000  0.68750000  0.62500000  1.0
  O  O7531  1  0.50000000  0.68750000  0.87500000  1.0
  O  O7532  1  0.50000000  0.93750000  0.12500000  1.0
  O  O7533  1  0.50000000  0.93750000  0.37500000  1.0
  O  O7534  1  0.50000000  0.93750000  0.62500000  1.0
  O  O7535  1  0.50000000  0.93750000  0.87500000  1.0
  O  O7536  1  0.75000000  0.18750000  0.12500000  1.0
  O  O7537  1  0.75000000  0.18750000  0.37500000  1.0
  O  O7538  1  0.75000000  0.18750000  0.62500000  1.0
  O  O7539  1  0.75000000  0.18750000  0.87500000  1.0
  O  O7540  1  0.75000000  0.43750000  0.12500000  1.0
  O  O7541  1  0.75000000  0.43750000  0.37500000  1.0
  O  O7542  1  0.75000000  0.43750000  0.62500000  1.0
  O  O7543  1  0.75000000  0.43750000  0.87500000  1.0
  O  O7544  1  0.75000000  0.68750000  0.12500000  1.0
  O  O7545  1  0.75000000  0.68750000  0.37500000  1.0
  O  O7546  1  0.75000000  0.68750000  0.62500000  1.0
  O  O7547  1  0.75000000  0.68750000  0.87500000  1.0
  O  O7548  1  0.75000000  0.93750000  0.12500000  1.0
  O  O7549  1  0.75000000  0.93750000  0.37500000  1.0
  O  O7550  1  0.75000000  0.93750000  0.62500000  1.0
  O  O7551  1  0.75000000  0.93750000  0.87500000  1.0
  O  O7552  1  0.00000000  0.06250000  0.00000000  1.0
  O  O7553  1  0.00000000  0.06250000  0.25000000  1.0
  O  O7554  1  0.00000000  0.06250000  0.50000000  1.0
  O  O7555  1  0.00000000  0.06250000  0.75000000  1.0
  O  O7556  1  0.00000000  0.31250000  0.00000000  1.0
  O  O7557  1  0.00000000  0.31250000  0.25000000  1.0
  O  O7558  1  0.00000000  0.31250000  0.50000000  1.0
  O  O7559  1  0.00000000  0.31250000  0.75000000  1.0
  O  O7560  1  0.00000000  0.56250000  0.00000000  1.0
  O  O7561  1  0.00000000  0.56250000  0.25000000  1.0
  O  O7562  1  0.00000000  0.56250000  0.50000000  1.0
  O  O7563  1  0.00000000  0.56250000  0.75000000  1.0
  O  O7564  1  0.00000000  0.81250000  1.00000000  1.0
  O  O7565  1  0.00000000  0.81250000  0.25000000  1.0
  O  O7566  1  0.00000000  0.81250000  0.50000000  1.0
  O  O7567  1  0.00000000  0.81250000  0.75000000  1.0
  O  O7568  1  0.25000000  0.06250000  0.00000000  1.0
  O  O7569  1  0.25000000  0.06250000  0.25000000  1.0
  O  O7570  1  0.25000000  0.06250000  0.50000000  1.0
  O  O7571  1  0.25000000  0.06250000  0.75000000  1.0
  O  O7572  1  0.25000000  0.31250000  0.00000000  1.0
  O  O7573  1  0.25000000  0.31250000  0.25000000  1.0
  O  O7574  1  0.25000000  0.31250000  0.50000000  1.0
  O  O7575  1  0.25000000  0.31250000  0.75000000  1.0
  O  O7576  1  0.25000000  0.56250000  0.00000000  1.0
  O  O7577  1  0.25000000  0.56250000  0.25000000  1.0
  O  O7578  1  0.25000000  0.56250000  0.50000000  1.0
  O  O7579  1  0.25000000  0.56250000  0.75000000  1.0
  O  O7580  1  0.25000000  0.81250000  1.00000000  1.0
  O  O7581  1  0.25000000  0.81250000  0.25000000  1.0
  O  O7582  1  0.25000000  0.81250000  0.50000000  1.0
  O  O7583  1  0.25000000  0.81250000  0.75000000  1.0
  O  O7584  1  0.50000000  0.06250000  0.00000000  1.0
  O  O7585  1  0.50000000  0.06250000  0.25000000  1.0
  O  O7586  1  0.50000000  0.06250000  0.50000000  1.0
  O  O7587  1  0.50000000  0.06250000  0.75000000  1.0
  O  O7588  1  0.50000000  0.31250000  1.00000000  1.0
  O  O7589  1  0.50000000  0.31250000  0.25000000  1.0
  O  O7590  1  0.50000000  0.31250000  0.50000000  1.0
  O  O7591  1  0.50000000  0.31250000  0.75000000  1.0
  O  O7592  1  0.50000000  0.56250000  1.00000000  1.0
  O  O7593  1  0.50000000  0.56250000  0.25000000  1.0
  O  O7594  1  0.50000000  0.56250000  0.50000000  1.0
  O  O7595  1  0.50000000  0.56250000  0.75000000  1.0
  O  O7596  1  0.50000000  0.81250000  1.00000000  1.0
  O  O7597  1  0.50000000  0.81250000  0.25000000  1.0
  O  O7598  1  0.50000000  0.81250000  0.50000000  1.0
  O  O7599  1  0.50000000  0.81250000  0.75000000  1.0
  O  O7600  1  0.75000000  0.06250000  1.00000000  1.0
  O  O7601  1  0.75000000  0.06250000  0.25000000  1.0
  O  O7602  1  0.75000000  0.06250000  0.50000000  1.0
  O  O7603  1  0.75000000  0.06250000  0.75000000  1.0
  O  O7604  1  0.75000000  0.31250000  1.00000000  1.0
  O  O7605  1  0.75000000  0.31250000  0.25000000  1.0
  O  O7606  1  0.75000000  0.31250000  0.50000000  1.0
  O  O7607  1  0.75000000  0.31250000  0.75000000  1.0
  O  O7608  1  0.75000000  0.56250000  1.00000000  1.0
  O  O7609  1  0.75000000  0.56250000  0.25000000  1.0
  O  O7610  1  0.75000000  0.56250000  0.50000000  1.0
  O  O7611  1  0.75000000  0.56250000  0.75000000  1.0
  O  O7612  1  0.75000000  0.81250000  0.00000000  1.0
  O  O7613  1  0.75000000  0.81250000  0.25000000  1.0
  O  O7614  1  0.75000000  0.81250000  0.50000000  1.0
  O  O7615  1  0.75000000  0.81250000  0.75000000  1.0
  O  O7616  1  0.12500000  0.18750000  0.00000000  1.0
  O  O7617  1  0.12500000  0.18750000  0.25000000  1.0
  O  O7618  1  0.12500000  0.18750000  0.50000000  1.0
  O  O7619  1  0.12500000  0.18750000  0.75000000  1.0
  O  O7620  1  0.12500000  0.43750000  0.00000000  1.0
  O  O7621  1  0.12500000  0.43750000  0.25000000  1.0
  O  O7622  1  0.12500000  0.43750000  0.50000000  1.0
  O  O7623  1  0.12500000  0.43750000  0.75000000  1.0
  O  O7624  1  0.12500000  0.68750000  1.00000000  1.0
  O  O7625  1  0.12500000  0.68750000  0.25000000  1.0
  O  O7626  1  0.12500000  0.68750000  0.50000000  1.0
  O  O7627  1  0.12500000  0.68750000  0.75000000  1.0
  O  O7628  1  0.12500000  0.93750000  0.00000000  1.0
  O  O7629  1  0.12500000  0.93750000  0.25000000  1.0
  O  O7630  1  0.12500000  0.93750000  0.50000000  1.0
  O  O7631  1  0.12500000  0.93750000  0.75000000  1.0
  O  O7632  1  0.37500000  0.18750000  0.00000000  1.0
  O  O7633  1  0.37500000  0.18750000  0.25000000  1.0
  O  O7634  1  0.37500000  0.18750000  0.50000000  1.0
  O  O7635  1  0.37500000  0.18750000  0.75000000  1.0
  O  O7636  1  0.37500000  0.43750000  1.00000000  1.0
  O  O7637  1  0.37500000  0.43750000  0.25000000  1.0
  O  O7638  1  0.37500000  0.43750000  0.50000000  1.0
  O  O7639  1  0.37500000  0.43750000  0.75000000  1.0
  O  O7640  1  0.37500000  0.68750000  0.00000000  1.0
  O  O7641  1  0.37500000  0.68750000  0.25000000  1.0
  O  O7642  1  0.37500000  0.68750000  0.50000000  1.0
  O  O7643  1  0.37500000  0.68750000  0.75000000  1.0
  O  O7644  1  0.37500000  0.93750000  0.00000000  1.0
  O  O7645  1  0.37500000  0.93750000  0.25000000  1.0
  O  O7646  1  0.37500000  0.93750000  0.50000000  1.0
  O  O7647  1  0.37500000  0.93750000  0.75000000  1.0
  O  O7648  1  0.62500000  0.18750000  1.00000000  1.0
  O  O7649  1  0.62500000  0.18750000  0.25000000  1.0
  O  O7650  1  0.62500000  0.18750000  0.50000000  1.0
  O  O7651  1  0.62500000  0.18750000  0.75000000  1.0
  O  O7652  1  0.62500000  0.43750000  1.00000000  1.0
  O  O7653  1  0.62500000  0.43750000  0.25000000  1.0
  O  O7654  1  0.62500000  0.43750000  0.50000000  1.0
  O  O7655  1  0.62500000  0.43750000  0.75000000  1.0
  O  O7656  1  0.62500000  0.68750000  0.00000000  1.0
  O  O7657  1  0.62500000  0.68750000  0.25000000  1.0
  O  O7658  1  0.62500000  0.68750000  0.50000000  1.0
  O  O7659  1  0.62500000  0.68750000  0.75000000  1.0
  O  O7660  1  0.62500000  0.93750000  0.00000000  1.0
  O  O7661  1  0.62500000  0.93750000  0.25000000  1.0
  O  O7662  1  0.62500000  0.93750000  0.50000000  1.0
  O  O7663  1  0.62500000  0.93750000  0.75000000  1.0
  O  O7664  1  0.87500000  0.18750000  1.00000000  1.0
  O  O7665  1  0.87500000  0.18750000  0.25000000  1.0
  O  O7666  1  0.87500000  0.18750000  0.50000000  1.0
  O  O7667  1  0.87500000  0.18750000  0.75000000  1.0
  O  O7668  1  0.87500000  0.43750000  0.00000000  1.0
  O  O7669  1  0.87500000  0.43750000  0.25000000  1.0
  O  O7670  1  0.87500000  0.43750000  0.50000000  1.0
  O  O7671  1  0.87500000  0.43750000  0.75000000  1.0
  O  O7672  1  0.87500000  0.68750000  0.00000000  1.0
  O  O7673  1  0.87500000  0.68750000  0.25000000  1.0
  O  O7674  1  0.87500000  0.68750000  0.50000000  1.0
  O  O7675  1  0.87500000  0.68750000  0.75000000  1.0
  O  O7676  1  0.87500000  0.93750000  0.00000000  1.0
  O  O7677  1  0.87500000  0.93750000  0.25000000  1.0
  O  O7678  1  0.87500000  0.93750000  0.50000000  1.0
  O  O7679  1  0.87500000  0.93750000  0.75000000  1.0
  O  O7680  1  0.06250000  0.12500000  0.12500000  1.0
  O  O7681  1  0.06250000  0.12500000  0.37500000  1.0
  O  O7682  1  0.06250000  0.12500000  0.62500000  1.0
  O  O7683  1  0.06250000  0.12500000  0.87500000  1.0
  O  O7684  1  0.06250000  0.37500000  0.12500000  1.0
  O  O7685  1  0.06250000  0.37500000  0.37500000  1.0
  O  O7686  1  0.06250000  0.37500000  0.62500000  1.0
  O  O7687  1  0.06250000  0.37500000  0.87500000  1.0
  O  O7688  1  0.06250000  0.62500000  0.12500000  1.0
  O  O7689  1  0.06250000  0.62500000  0.37500000  1.0
  O  O7690  1  0.06250000  0.62500000  0.62500000  1.0
  O  O7691  1  0.06250000  0.62500000  0.87500000  1.0
  O  O7692  1  0.06250000  0.87500000  0.12500000  1.0
  O  O7693  1  0.06250000  0.87500000  0.37500000  1.0
  O  O7694  1  0.06250000  0.87500000  0.62500000  1.0
  O  O7695  1  0.06250000  0.87500000  0.87500000  1.0
  O  O7696  1  0.31250000  0.12500000  0.12500000  1.0
  O  O7697  1  0.31250000  0.12500000  0.37500000  1.0
  O  O7698  1  0.31250000  0.12500000  0.62500000  1.0
  O  O7699  1  0.31250000  0.12500000  0.87500000  1.0
  O  O7700  1  0.31250000  0.37500000  0.12500000  1.0
  O  O7701  1  0.31250000  0.37500000  0.37500000  1.0
  O  O7702  1  0.31250000  0.37500000  0.62500000  1.0
  O  O7703  1  0.31250000  0.37500000  0.87500000  1.0
  O  O7704  1  0.31250000  0.62500000  0.12500000  1.0
  O  O7705  1  0.31250000  0.62500000  0.37500000  1.0
  O  O7706  1  0.31250000  0.62500000  0.62500000  1.0
  O  O7707  1  0.31250000  0.62500000  0.87500000  1.0
  O  O7708  1  0.31250000  0.87500000  0.12500000  1.0
  O  O7709  1  0.31250000  0.87500000  0.37500000  1.0
  O  O7710  1  0.31250000  0.87500000  0.62500000  1.0
  O  O7711  1  0.31250000  0.87500000  0.87500000  1.0
  O  O7712  1  0.56250000  0.12500000  0.12500000  1.0
  O  O7713  1  0.56250000  0.12500000  0.37500000  1.0
  O  O7714  1  0.56250000  0.12500000  0.62500000  1.0
  O  O7715  1  0.56250000  0.12500000  0.87500000  1.0
  O  O7716  1  0.56250000  0.37500000  0.12500000  1.0
  O  O7717  1  0.56250000  0.37500000  0.37500000  1.0
  O  O7718  1  0.56250000  0.37500000  0.62500000  1.0
  O  O7719  1  0.56250000  0.37500000  0.87500000  1.0
  O  O7720  1  0.56250000  0.62500000  0.12500000  1.0
  O  O7721  1  0.56250000  0.62500000  0.37500000  1.0
  O  O7722  1  0.56250000  0.62500000  0.62500000  1.0
  O  O7723  1  0.56250000  0.62500000  0.87500000  1.0
  O  O7724  1  0.56250000  0.87500000  0.12500000  1.0
  O  O7725  1  0.56250000  0.87500000  0.37500000  1.0
  O  O7726  1  0.56250000  0.87500000  0.62500000  1.0
  O  O7727  1  0.56250000  0.87500000  0.87500000  1.0
  O  O7728  1  0.81250000  0.12500000  0.12500000  1.0
  O  O7729  1  0.81250000  0.12500000  0.37500000  1.0
  O  O7730  1  0.81250000  0.12500000  0.62500000  1.0
  O  O7731  1  0.81250000  0.12500000  0.87500000  1.0
  O  O7732  1  0.81250000  0.37500000  0.12500000  1.0
  O  O7733  1  0.81250000  0.37500000  0.37500000  1.0
  O  O7734  1  0.81250000  0.37500000  0.62500000  1.0
  O  O7735  1  0.81250000  0.37500000  0.87500000  1.0
  O  O7736  1  0.81250000  0.62500000  0.12500000  1.0
  O  O7737  1  0.81250000  0.62500000  0.37500000  1.0
  O  O7738  1  0.81250000  0.62500000  0.62500000  1.0
  O  O7739  1  0.81250000  0.62500000  0.87500000  1.0
  O  O7740  1  0.81250000  0.87500000  0.12500000  1.0
  O  O7741  1  0.81250000  0.87500000  0.37500000  1.0
  O  O7742  1  0.81250000  0.87500000  0.62500000  1.0
  O  O7743  1  0.81250000  0.87500000  0.87500000  1.0
  O  O7744  1  0.18750000  0.00000000  0.12500000  1.0
  O  O7745  1  0.18750000  0.00000000  0.37500000  1.0
  O  O7746  1  0.18750000  0.00000000  0.62500000  1.0
  O  O7747  1  0.18750000  0.00000000  0.87500000  1.0
  O  O7748  1  0.18750000  0.25000000  0.12500000  1.0
  O  O7749  1  0.18750000  0.25000000  0.37500000  1.0
  O  O7750  1  0.18750000  0.25000000  0.62500000  1.0
  O  O7751  1  0.18750000  0.25000000  0.87500000  1.0
  O  O7752  1  0.18750000  0.50000000  0.12500000  1.0
  O  O7753  1  0.18750000  0.50000000  0.37500000  1.0
  O  O7754  1  0.18750000  0.50000000  0.62500000  1.0
  O  O7755  1  0.18750000  0.50000000  0.87500000  1.0
  O  O7756  1  0.18750000  0.75000000  0.12500000  1.0
  O  O7757  1  0.18750000  0.75000000  0.37500000  1.0
  O  O7758  1  0.18750000  0.75000000  0.62500000  1.0
  O  O7759  1  0.18750000  0.75000000  0.87500000  1.0
  O  O7760  1  0.43750000  0.00000000  0.12500000  1.0
  O  O7761  1  0.43750000  0.00000000  0.37500000  1.0
  O  O7762  1  0.43750000  0.00000000  0.62500000  1.0
  O  O7763  1  0.43750000  0.00000000  0.87500000  1.0
  O  O7764  1  0.43750000  0.25000000  0.12500000  1.0
  O  O7765  1  0.43750000  0.25000000  0.37500000  1.0
  O  O7766  1  0.43750000  0.25000000  0.62500000  1.0
  O  O7767  1  0.43750000  0.25000000  0.87500000  1.0
  O  O7768  1  0.43750000  0.50000000  0.12500000  1.0
  O  O7769  1  0.43750000  0.50000000  0.37500000  1.0
  O  O7770  1  0.43750000  0.50000000  0.62500000  1.0
  O  O7771  1  0.43750000  0.50000000  0.87500000  1.0
  O  O7772  1  0.43750000  0.75000000  0.12500000  1.0
  O  O7773  1  0.43750000  0.75000000  0.37500000  1.0
  O  O7774  1  0.43750000  0.75000000  0.62500000  1.0
  O  O7775  1  0.43750000  0.75000000  0.87500000  1.0
  O  O7776  1  0.68750000  0.00000000  0.12500000  1.0
  O  O7777  1  0.68750000  0.00000000  0.37500000  1.0
  O  O7778  1  0.68750000  0.00000000  0.62500000  1.0
  O  O7779  1  0.68750000  0.00000000  0.87500000  1.0
  O  O7780  1  0.68750000  0.25000000  0.12500000  1.0
  O  O7781  1  0.68750000  0.25000000  0.37500000  1.0
  O  O7782  1  0.68750000  0.25000000  0.62500000  1.0
  O  O7783  1  0.68750000  0.25000000  0.87500000  1.0
  O  O7784  1  0.68750000  0.50000000  0.12500000  1.0
  O  O7785  1  0.68750000  0.50000000  0.37500000  1.0
  O  O7786  1  0.68750000  0.50000000  0.62500000  1.0
  O  O7787  1  0.68750000  0.50000000  0.87500000  1.0
  O  O7788  1  0.68750000  0.75000000  0.12500000  1.0
  O  O7789  1  0.68750000  0.75000000  0.37500000  1.0
  O  O7790  1  0.68750000  0.75000000  0.62500000  1.0
  O  O7791  1  0.68750000  0.75000000  0.87500000  1.0
  O  O7792  1  0.93750000  0.00000000  0.12500000  1.0
  O  O7793  1  0.93750000  0.00000000  0.37500000  1.0
  O  O7794  1  0.93750000  0.00000000  0.62500000  1.0
  O  O7795  1  0.93750000  0.00000000  0.87500000  1.0
  O  O7796  1  0.93750000  0.25000000  0.12500000  1.0
  O  O7797  1  0.93750000  0.25000000  0.37500000  1.0
  O  O7798  1  0.93750000  0.25000000  0.62500000  1.0
  O  O7799  1  0.93750000  0.25000000  0.87500000  1.0
  O  O7800  1  0.93750000  0.50000000  0.12500000  1.0
  O  O7801  1  0.93750000  0.50000000  0.37500000  1.0
  O  O7802  1  0.93750000  0.50000000  0.62500000  1.0
  O  O7803  1  0.93750000  0.50000000  0.87500000  1.0
  O  O7804  1  0.93750000  0.75000000  0.12500000  1.0
  O  O7805  1  0.93750000  0.75000000  0.37500000  1.0
  O  O7806  1  0.93750000  0.75000000  0.62500000  1.0
  O  O7807  1  0.93750000  0.75000000  0.87500000  1.0
  O  O7808  1  0.18750000  0.12500000  0.00000000  1.0
  O  O7809  1  0.18750000  0.12500000  0.25000000  1.0
  O  O7810  1  0.18750000  0.12500000  0.50000000  1.0
  O  O7811  1  0.18750000  0.12500000  0.75000000  1.0
  O  O7812  1  0.18750000  0.37500000  0.00000000  1.0
  O  O7813  1  0.18750000  0.37500000  0.25000000  1.0
  O  O7814  1  0.18750000  0.37500000  0.50000000  1.0
  O  O7815  1  0.18750000  0.37500000  0.75000000  1.0
  O  O7816  1  0.18750000  0.62500000  1.00000000  1.0
  O  O7817  1  0.18750000  0.62500000  0.25000000  1.0
  O  O7818  1  0.18750000  0.62500000  0.50000000  1.0
  O  O7819  1  0.18750000  0.62500000  0.75000000  1.0
  O  O7820  1  0.18750000  0.87500000  1.00000000  1.0
  O  O7821  1  0.18750000  0.87500000  0.25000000  1.0
  O  O7822  1  0.18750000  0.87500000  0.50000000  1.0
  O  O7823  1  0.18750000  0.87500000  0.75000000  1.0
  O  O7824  1  0.43750000  0.12500000  0.00000000  1.0
  O  O7825  1  0.43750000  0.12500000  0.25000000  1.0
  O  O7826  1  0.43750000  0.12500000  0.50000000  1.0
  O  O7827  1  0.43750000  0.12500000  0.75000000  1.0
  O  O7828  1  0.43750000  0.37500000  1.00000000  1.0
  O  O7829  1  0.43750000  0.37500000  0.25000000  1.0
  O  O7830  1  0.43750000  0.37500000  0.50000000  1.0
  O  O7831  1  0.43750000  0.37500000  0.75000000  1.0
  O  O7832  1  0.43750000  0.62500000  0.00000000  1.0
  O  O7833  1  0.43750000  0.62500000  0.25000000  1.0
  O  O7834  1  0.43750000  0.62500000  0.50000000  1.0
  O  O7835  1  0.43750000  0.62500000  0.75000000  1.0
  O  O7836  1  0.43750000  0.87500000  0.00000000  1.0
  O  O7837  1  0.43750000  0.87500000  0.25000000  1.0
  O  O7838  1  0.43750000  0.87500000  0.50000000  1.0
  O  O7839  1  0.43750000  0.87500000  0.75000000  1.0
  O  O7840  1  0.68750000  0.12500000  1.00000000  1.0
  O  O7841  1  0.68750000  0.12500000  0.25000000  1.0
  O  O7842  1  0.68750000  0.12500000  0.50000000  1.0
  O  O7843  1  0.68750000  0.12500000  0.75000000  1.0
  O  O7844  1  0.68750000  0.37500000  1.00000000  1.0
  O  O7845  1  0.68750000  0.37500000  0.25000000  1.0
  O  O7846  1  0.68750000  0.37500000  0.50000000  1.0
  O  O7847  1  0.68750000  0.37500000  0.75000000  1.0
  O  O7848  1  0.68750000  0.62500000  0.00000000  1.0
  O  O7849  1  0.68750000  0.62500000  0.25000000  1.0
  O  O7850  1  0.68750000  0.62500000  0.50000000  1.0
  O  O7851  1  0.68750000  0.62500000  0.75000000  1.0
  O  O7852  1  0.68750000  0.87500000  0.00000000  1.0
  O  O7853  1  0.68750000  0.87500000  0.25000000  1.0
  O  O7854  1  0.68750000  0.87500000  0.50000000  1.0
  O  O7855  1  0.68750000  0.87500000  0.75000000  1.0
  O  O7856  1  0.93750000  0.12500000  0.00000000  1.0
  O  O7857  1  0.93750000  0.12500000  0.25000000  1.0
  O  O7858  1  0.93750000  0.12500000  0.50000000  1.0
  O  O7859  1  0.93750000  0.12500000  0.75000000  1.0
  O  O7860  1  0.93750000  0.37500000  0.00000000  1.0
  O  O7861  1  0.93750000  0.37500000  0.25000000  1.0
  O  O7862  1  0.93750000  0.37500000  0.50000000  1.0
  O  O7863  1  0.93750000  0.37500000  0.75000000  1.0
  O  O7864  1  0.93750000  0.62500000  0.00000000  1.0
  O  O7865  1  0.93750000  0.62500000  0.25000000  1.0
  O  O7866  1  0.93750000  0.62500000  0.50000000  1.0
  O  O7867  1  0.93750000  0.62500000  0.75000000  1.0
  O  O7868  1  0.93750000  0.87500000  0.00000000  1.0
  O  O7869  1  0.93750000  0.87500000  0.25000000  1.0
  O  O7870  1  0.93750000  0.87500000  0.50000000  1.0
  O  O7871  1  0.93750000  0.87500000  0.75000000  1.0
  O  O7872  1  0.06250000  0.00000000  0.00000000  1.0
  O  O7873  1  0.06250000  0.00000000  0.25000000  1.0
  O  O7874  1  0.06250000  0.00000000  0.50000000  1.0
  O  O7875  1  0.06250000  0.00000000  0.75000000  1.0
  O  O7876  1  0.06250000  0.25000000  0.00000000  1.0
  O  O7877  1  0.06250000  0.25000000  0.25000000  1.0
  O  O7878  1  0.06250000  0.25000000  0.50000000  1.0
  O  O7879  1  0.06250000  0.25000000  0.75000000  1.0
  O  O7880  1  0.06250000  0.50000000  0.00000000  1.0
  O  O7881  1  0.06250000  0.50000000  0.25000000  1.0
  O  O7882  1  0.06250000  0.50000000  0.50000000  1.0
  O  O7883  1  0.06250000  0.50000000  0.75000000  1.0
  O  O7884  1  0.06250000  0.75000000  1.00000000  1.0
  O  O7885  1  0.06250000  0.75000000  0.25000000  1.0
  O  O7886  1  0.06250000  0.75000000  0.50000000  1.0
  O  O7887  1  0.06250000  0.75000000  0.75000000  1.0
  O  O7888  1  0.31250000  0.00000000  0.00000000  1.0
  O  O7889  1  0.31250000  0.00000000  0.25000000  1.0
  O  O7890  1  0.31250000  0.00000000  0.50000000  1.0
  O  O7891  1  0.31250000  0.00000000  0.75000000  1.0
  O  O7892  1  0.31250000  0.25000000  0.00000000  1.0
  O  O7893  1  0.31250000  0.25000000  0.25000000  1.0
  O  O7894  1  0.31250000  0.25000000  0.50000000  1.0
  O  O7895  1  0.31250000  0.25000000  0.75000000  1.0
  O  O7896  1  0.31250000  0.50000000  0.00000000  1.0
  O  O7897  1  0.31250000  0.50000000  0.25000000  1.0
  O  O7898  1  0.31250000  0.50000000  0.50000000  1.0
  O  O7899  1  0.31250000  0.50000000  0.75000000  1.0
  O  O7900  1  0.31250000  0.75000000  1.00000000  1.0
  O  O7901  1  0.31250000  0.75000000  0.25000000  1.0
  O  O7902  1  0.31250000  0.75000000  0.50000000  1.0
  O  O7903  1  0.31250000  0.75000000  0.75000000  1.0
  O  O7904  1  0.56250000  0.00000000  0.00000000  1.0
  O  O7905  1  0.56250000  0.00000000  0.25000000  1.0
  O  O7906  1  0.56250000  0.00000000  0.50000000  1.0
  O  O7907  1  0.56250000  0.00000000  0.75000000  1.0
  O  O7908  1  0.56250000  0.25000000  1.00000000  1.0
  O  O7909  1  0.56250000  0.25000000  0.25000000  1.0
  O  O7910  1  0.56250000  0.25000000  0.50000000  1.0
  O  O7911  1  0.56250000  0.25000000  0.75000000  1.0
  O  O7912  1  0.56250000  0.50000000  1.00000000  1.0
  O  O7913  1  0.56250000  0.50000000  0.25000000  1.0
  O  O7914  1  0.56250000  0.50000000  0.50000000  1.0
  O  O7915  1  0.56250000  0.50000000  0.75000000  1.0
  O  O7916  1  0.56250000  0.75000000  0.00000000  1.0
  O  O7917  1  0.56250000  0.75000000  0.25000000  1.0
  O  O7918  1  0.56250000  0.75000000  0.50000000  1.0
  O  O7919  1  0.56250000  0.75000000  0.75000000  1.0
  O  O7920  1  0.81250000  0.00000000  1.00000000  1.0
  O  O7921  1  0.81250000  0.00000000  0.25000000  1.0
  O  O7922  1  0.81250000  0.00000000  0.50000000  1.0
  O  O7923  1  0.81250000  0.00000000  0.75000000  1.0
  O  O7924  1  0.81250000  0.25000000  1.00000000  1.0
  O  O7925  1  0.81250000  0.25000000  0.25000000  1.0
  O  O7926  1  0.81250000  0.25000000  0.50000000  1.0
  O  O7927  1  0.81250000  0.25000000  0.75000000  1.0
  O  O7928  1  0.81250000  0.50000000  1.00000000  1.0
  O  O7929  1  0.81250000  0.50000000  0.25000000  1.0
  O  O7930  1  0.81250000  0.50000000  0.50000000  1.0
  O  O7931  1  0.81250000  0.50000000  0.75000000  1.0
  O  O7932  1  0.81250000  0.75000000  0.00000000  1.0
  O  O7933  1  0.81250000  0.75000000  0.25000000  1.0
  O  O7934  1  0.81250000  0.75000000  0.50000000  1.0
  O  O7935  1  0.81250000  0.75000000  0.75000000  1.0
  O  O7936  1  0.06250000  0.06250000  0.06250000  1.0
  O  O7937  1  0.06250000  0.06250000  0.31250000  1.0
  O  O7938  1  0.06250000  0.06250000  0.56250000  1.0
  O  O7939  1  0.06250000  0.06250000  0.81250000  1.0
  O  O7940  1  0.06250000  0.31250000  0.06250000  1.0
  O  O7941  1  0.06250000  0.31250000  0.31250000  1.0
  O  O7942  1  0.06250000  0.31250000  0.56250000  1.0
  O  O7943  1  0.06250000  0.31250000  0.81250000  1.0
  O  O7944  1  0.06250000  0.56250000  0.06250000  1.0
  O  O7945  1  0.06250000  0.56250000  0.31250000  1.0
  O  O7946  1  0.06250000  0.56250000  0.56250000  1.0
  O  O7947  1  0.06250000  0.56250000  0.81250000  1.0
  O  O7948  1  0.06250000  0.81250000  0.06250000  1.0
  O  O7949  1  0.06250000  0.81250000  0.31250000  1.0
  O  O7950  1  0.06250000  0.81250000  0.56250000  1.0
  O  O7951  1  0.06250000  0.81250000  0.81250000  1.0
  O  O7952  1  0.31250000  0.06250000  0.06250000  1.0
  O  O7953  1  0.31250000  0.06250000  0.31250000  1.0
  O  O7954  1  0.31250000  0.06250000  0.56250000  1.0
  O  O7955  1  0.31250000  0.06250000  0.81250000  1.0
  O  O7956  1  0.31250000  0.31250000  0.06250000  1.0
  O  O7957  1  0.31250000  0.31250000  0.31250000  1.0
  O  O7958  1  0.31250000  0.31250000  0.56250000  1.0
  O  O7959  1  0.31250000  0.31250000  0.81250000  1.0
  O  O7960  1  0.31250000  0.56250000  0.06250000  1.0
  O  O7961  1  0.31250000  0.56250000  0.31250000  1.0
  O  O7962  1  0.31250000  0.56250000  0.56250000  1.0
  O  O7963  1  0.31250000  0.56250000  0.81250000  1.0
  O  O7964  1  0.31250000  0.81250000  0.06250000  1.0
  O  O7965  1  0.31250000  0.81250000  0.31250000  1.0
  O  O7966  1  0.31250000  0.81250000  0.56250000  1.0
  O  O7967  1  0.31250000  0.81250000  0.81250000  1.0
  O  O7968  1  0.56250000  0.06250000  0.06250000  1.0
  O  O7969  1  0.56250000  0.06250000  0.31250000  1.0
  O  O7970  1  0.56250000  0.06250000  0.56250000  1.0
  O  O7971  1  0.56250000  0.06250000  0.81250000  1.0
  O  O7972  1  0.56250000  0.31250000  0.06250000  1.0
  O  O7973  1  0.56250000  0.31250000  0.31250000  1.0
  O  O7974  1  0.56250000  0.31250000  0.56250000  1.0
  O  O7975  1  0.56250000  0.31250000  0.81250000  1.0
  O  O7976  1  0.56250000  0.56250000  0.06250000  1.0
  O  O7977  1  0.56250000  0.56250000  0.31250000  1.0
  O  O7978  1  0.56250000  0.56250000  0.56250000  1.0
  O  O7979  1  0.56250000  0.56250000  0.81250000  1.0
  O  O7980  1  0.56250000  0.81250000  0.06250000  1.0
  O  O7981  1  0.56250000  0.81250000  0.31250000  1.0
  O  O7982  1  0.56250000  0.81250000  0.56250000  1.0
  O  O7983  1  0.56250000  0.81250000  0.81250000  1.0
  O  O7984  1  0.81250000  0.06250000  0.06250000  1.0
  O  O7985  1  0.81250000  0.06250000  0.31250000  1.0
  O  O7986  1  0.81250000  0.06250000  0.56250000  1.0
  O  O7987  1  0.81250000  0.06250000  0.81250000  1.0
  O  O7988  1  0.81250000  0.31250000  0.06250000  1.0
  O  O7989  1  0.81250000  0.31250000  0.31250000  1.0
  O  O7990  1  0.81250000  0.31250000  0.56250000  1.0
  O  O7991  1  0.81250000  0.31250000  0.81250000  1.0
  O  O7992  1  0.81250000  0.56250000  0.06250000  1.0
  O  O7993  1  0.81250000  0.56250000  0.31250000  1.0
  O  O7994  1  0.81250000  0.56250000  0.56250000  1.0
  O  O7995  1  0.81250000  0.56250000  0.81250000  1.0
  O  O7996  1  0.81250000  0.81250000  0.06250000  1.0
  O  O7997  1  0.81250000  0.81250000  0.31250000  1.0
  O  O7998  1  0.81250000  0.81250000  0.56250000  1.0
  O  O7999  1  0.81250000  0.81250000  0.81250000  1.0
  O  O8000  1  0.18750000  0.18750000  0.06250000  1.0
  O  O8001  1  0.18750000  0.18750000  0.31250000  1.0
  O  O8002  1  0.18750000  0.18750000  0.56250000  1.0
  O  O8003  1  0.18750000  0.18750000  0.81250000  1.0
  O  O8004  1  0.18750000  0.43750000  0.06250000  1.0
  O  O8005  1  0.18750000  0.43750000  0.31250000  1.0
  O  O8006  1  0.18750000  0.43750000  0.56250000  1.0
  O  O8007  1  0.18750000  0.43750000  0.81250000  1.0
  O  O8008  1  0.18750000  0.68750000  0.06250000  1.0
  O  O8009  1  0.18750000  0.68750000  0.31250000  1.0
  O  O8010  1  0.18750000  0.68750000  0.56250000  1.0
  O  O8011  1  0.18750000  0.68750000  0.81250000  1.0
  O  O8012  1  0.18750000  0.93750000  0.06250000  1.0
  O  O8013  1  0.18750000  0.93750000  0.31250000  1.0
  O  O8014  1  0.18750000  0.93750000  0.56250000  1.0
  O  O8015  1  0.18750000  0.93750000  0.81250000  1.0
  O  O8016  1  0.43750000  0.18750000  0.06250000  1.0
  O  O8017  1  0.43750000  0.18750000  0.31250000  1.0
  O  O8018  1  0.43750000  0.18750000  0.56250000  1.0
  O  O8019  1  0.43750000  0.18750000  0.81250000  1.0
  O  O8020  1  0.43750000  0.43750000  0.06250000  1.0
  O  O8021  1  0.43750000  0.43750000  0.31250000  1.0
  O  O8022  1  0.43750000  0.43750000  0.56250000  1.0
  O  O8023  1  0.43750000  0.43750000  0.81250000  1.0
  O  O8024  1  0.43750000  0.68750000  0.06250000  1.0
  O  O8025  1  0.43750000  0.68750000  0.31250000  1.0
  O  O8026  1  0.43750000  0.68750000  0.56250000  1.0
  O  O8027  1  0.43750000  0.68750000  0.81250000  1.0
  O  O8028  1  0.43750000  0.93750000  0.06250000  1.0
  O  O8029  1  0.43750000  0.93750000  0.31250000  1.0
  O  O8030  1  0.43750000  0.93750000  0.56250000  1.0
  O  O8031  1  0.43750000  0.93750000  0.81250000  1.0
  O  O8032  1  0.68750000  0.18750000  0.06250000  1.0
  O  O8033  1  0.68750000  0.18750000  0.31250000  1.0
  O  O8034  1  0.68750000  0.18750000  0.56250000  1.0
  O  O8035  1  0.68750000  0.18750000  0.81250000  1.0
  O  O8036  1  0.68750000  0.43750000  0.06250000  1.0
  O  O8037  1  0.68750000  0.43750000  0.31250000  1.0
  O  O8038  1  0.68750000  0.43750000  0.56250000  1.0
  O  O8039  1  0.68750000  0.43750000  0.81250000  1.0
  O  O8040  1  0.68750000  0.68750000  0.06250000  1.0
  O  O8041  1  0.68750000  0.68750000  0.31250000  1.0
  O  O8042  1  0.68750000  0.68750000  0.56250000  1.0
  O  O8043  1  0.68750000  0.68750000  0.81250000  1.0
  O  O8044  1  0.68750000  0.93750000  0.06250000  1.0
  O  O8045  1  0.68750000  0.93750000  0.31250000  1.0
  O  O8046  1  0.68750000  0.93750000  0.56250000  1.0
  O  O8047  1  0.68750000  0.93750000  0.81250000  1.0
  O  O8048  1  0.93750000  0.18750000  0.06250000  1.0
  O  O8049  1  0.93750000  0.18750000  0.31250000  1.0
  O  O8050  1  0.93750000  0.18750000  0.56250000  1.0
  O  O8051  1  0.93750000  0.18750000  0.81250000  1.0
  O  O8052  1  0.93750000  0.43750000  0.06250000  1.0
  O  O8053  1  0.93750000  0.43750000  0.31250000  1.0
  O  O8054  1  0.93750000  0.43750000  0.56250000  1.0
  O  O8055  1  0.93750000  0.43750000  0.81250000  1.0
  O  O8056  1  0.93750000  0.68750000  0.06250000  1.0
  O  O8057  1  0.93750000  0.68750000  0.31250000  1.0
  O  O8058  1  0.93750000  0.68750000  0.56250000  1.0
  O  O8059  1  0.93750000  0.68750000  0.81250000  1.0
  O  O8060  1  0.93750000  0.93750000  0.06250000  1.0
  O  O8061  1  0.93750000  0.93750000  0.31250000  1.0
  O  O8062  1  0.93750000  0.93750000  0.56250000  1.0
  O  O8063  1  0.93750000  0.93750000  0.81250000  1.0
  O  O8064  1  0.18750000  0.06250000  0.18750000  1.0
  O  O8065  1  0.18750000  0.06250000  0.43750000  1.0
  O  O8066  1  0.18750000  0.06250000  0.68750000  1.0
  O  O8067  1  0.18750000  0.06250000  0.93750000  1.0
  O  O8068  1  0.18750000  0.31250000  0.18750000  1.0
  O  O8069  1  0.18750000  0.31250000  0.43750000  1.0
  O  O8070  1  0.18750000  0.31250000  0.68750000  1.0
  O  O8071  1  0.18750000  0.31250000  0.93750000  1.0
  O  O8072  1  0.18750000  0.56250000  0.18750000  1.0
  O  O8073  1  0.18750000  0.56250000  0.43750000  1.0
  O  O8074  1  0.18750000  0.56250000  0.68750000  1.0
  O  O8075  1  0.18750000  0.56250000  0.93750000  1.0
  O  O8076  1  0.18750000  0.81250000  0.18750000  1.0
  O  O8077  1  0.18750000  0.81250000  0.43750000  1.0
  O  O8078  1  0.18750000  0.81250000  0.68750000  1.0
  O  O8079  1  0.18750000  0.81250000  0.93750000  1.0
  O  O8080  1  0.43750000  0.06250000  0.18750000  1.0
  O  O8081  1  0.43750000  0.06250000  0.43750000  1.0
  O  O8082  1  0.43750000  0.06250000  0.68750000  1.0
  O  O8083  1  0.43750000  0.06250000  0.93750000  1.0
  O  O8084  1  0.43750000  0.31250000  0.18750000  1.0
  O  O8085  1  0.43750000  0.31250000  0.43750000  1.0
  O  O8086  1  0.43750000  0.31250000  0.68750000  1.0
  O  O8087  1  0.43750000  0.31250000  0.93750000  1.0
  O  O8088  1  0.43750000  0.56250000  0.18750000  1.0
  O  O8089  1  0.43750000  0.56250000  0.43750000  1.0
  O  O8090  1  0.43750000  0.56250000  0.68750000  1.0
  O  O8091  1  0.43750000  0.56250000  0.93750000  1.0
  O  O8092  1  0.43750000  0.81250000  0.18750000  1.0
  O  O8093  1  0.43750000  0.81250000  0.43750000  1.0
  O  O8094  1  0.43750000  0.81250000  0.68750000  1.0
  O  O8095  1  0.43750000  0.81250000  0.93750000  1.0
  O  O8096  1  0.68750000  0.06250000  0.18750000  1.0
  O  O8097  1  0.68750000  0.06250000  0.43750000  1.0
  O  O8098  1  0.68750000  0.06250000  0.68750000  1.0
  O  O8099  1  0.68750000  0.06250000  0.93750000  1.0
  O  O8100  1  0.68750000  0.31250000  0.18750000  1.0
  O  O8101  1  0.68750000  0.31250000  0.43750000  1.0
  O  O8102  1  0.68750000  0.31250000  0.68750000  1.0
  O  O8103  1  0.68750000  0.31250000  0.93750000  1.0
  O  O8104  1  0.68750000  0.56250000  0.18750000  1.0
  O  O8105  1  0.68750000  0.56250000  0.43750000  1.0
  O  O8106  1  0.68750000  0.56250000  0.68750000  1.0
  O  O8107  1  0.68750000  0.56250000  0.93750000  1.0
  O  O8108  1  0.68750000  0.81250000  0.18750000  1.0
  O  O8109  1  0.68750000  0.81250000  0.43750000  1.0
  O  O8110  1  0.68750000  0.81250000  0.68750000  1.0
  O  O8111  1  0.68750000  0.81250000  0.93750000  1.0
  O  O8112  1  0.93750000  0.06250000  0.18750000  1.0
  O  O8113  1  0.93750000  0.06250000  0.43750000  1.0
  O  O8114  1  0.93750000  0.06250000  0.68750000  1.0
  O  O8115  1  0.93750000  0.06250000  0.93750000  1.0
  O  O8116  1  0.93750000  0.31250000  0.18750000  1.0
  O  O8117  1  0.93750000  0.31250000  0.43750000  1.0
  O  O8118  1  0.93750000  0.31250000  0.68750000  1.0
  O  O8119  1  0.93750000  0.31250000  0.93750000  1.0
  O  O8120  1  0.93750000  0.56250000  0.18750000  1.0
  O  O8121  1  0.93750000  0.56250000  0.43750000  1.0
  O  O8122  1  0.93750000  0.56250000  0.68750000  1.0
  O  O8123  1  0.93750000  0.56250000  0.93750000  1.0
  O  O8124  1  0.93750000  0.81250000  0.18750000  1.0
  O  O8125  1  0.93750000  0.81250000  0.43750000  1.0
  O  O8126  1  0.93750000  0.81250000  0.68750000  1.0
  O  O8127  1  0.93750000  0.81250000  0.93750000  1.0
  O  O8128  1  0.06250000  0.18750000  0.18750000  1.0
  O  O8129  1  0.06250000  0.18750000  0.43750000  1.0
  O  O8130  1  0.06250000  0.18750000  0.68750000  1.0
  O  O8131  1  0.06250000  0.18750000  0.93750000  1.0
  O  O8132  1  0.06250000  0.43750000  0.18750000  1.0
  O  O8133  1  0.06250000  0.43750000  0.43750000  1.0
  O  O8134  1  0.06250000  0.43750000  0.68750000  1.0
  O  O8135  1  0.06250000  0.43750000  0.93750000  1.0
  O  O8136  1  0.06250000  0.68750000  0.18750000  1.0
  O  O8137  1  0.06250000  0.68750000  0.43750000  1.0
  O  O8138  1  0.06250000  0.68750000  0.68750000  1.0
  O  O8139  1  0.06250000  0.68750000  0.93750000  1.0
  O  O8140  1  0.06250000  0.93750000  0.18750000  1.0
  O  O8141  1  0.06250000  0.93750000  0.43750000  1.0
  O  O8142  1  0.06250000  0.93750000  0.68750000  1.0
  O  O8143  1  0.06250000  0.93750000  0.93750000  1.0
  O  O8144  1  0.31250000  0.18750000  0.18750000  1.0
  O  O8145  1  0.31250000  0.18750000  0.43750000  1.0
  O  O8146  1  0.31250000  0.18750000  0.68750000  1.0
  O  O8147  1  0.31250000  0.18750000  0.93750000  1.0
  O  O8148  1  0.31250000  0.43750000  0.18750000  1.0
  O  O8149  1  0.31250000  0.43750000  0.43750000  1.0
  O  O8150  1  0.31250000  0.43750000  0.68750000  1.0
  O  O8151  1  0.31250000  0.43750000  0.93750000  1.0
  O  O8152  1  0.31250000  0.68750000  0.18750000  1.0
  O  O8153  1  0.31250000  0.68750000  0.43750000  1.0
  O  O8154  1  0.31250000  0.68750000  0.68750000  1.0
  O  O8155  1  0.31250000  0.68750000  0.93750000  1.0
  O  O8156  1  0.31250000  0.93750000  0.18750000  1.0
  O  O8157  1  0.31250000  0.93750000  0.43750000  1.0
  O  O8158  1  0.31250000  0.93750000  0.68750000  1.0
  O  O8159  1  0.31250000  0.93750000  0.93750000  1.0
  O  O8160  1  0.56250000  0.18750000  0.18750000  1.0
  O  O8161  1  0.56250000  0.18750000  0.43750000  1.0
  O  O8162  1  0.56250000  0.18750000  0.68750000  1.0
  O  O8163  1  0.56250000  0.18750000  0.93750000  1.0
  O  O8164  1  0.56250000  0.43750000  0.18750000  1.0
  O  O8165  1  0.56250000  0.43750000  0.43750000  1.0
  O  O8166  1  0.56250000  0.43750000  0.68750000  1.0
  O  O8167  1  0.56250000  0.43750000  0.93750000  1.0
  O  O8168  1  0.56250000  0.68750000  0.18750000  1.0
  O  O8169  1  0.56250000  0.68750000  0.43750000  1.0
  O  O8170  1  0.56250000  0.68750000  0.68750000  1.0
  O  O8171  1  0.56250000  0.68750000  0.93750000  1.0
  O  O8172  1  0.56250000  0.93750000  0.18750000  1.0
  O  O8173  1  0.56250000  0.93750000  0.43750000  1.0
  O  O8174  1  0.56250000  0.93750000  0.68750000  1.0
  O  O8175  1  0.56250000  0.93750000  0.93750000  1.0
  O  O8176  1  0.81250000  0.18750000  0.18750000  1.0
  O  O8177  1  0.81250000  0.18750000  0.43750000  1.0
  O  O8178  1  0.81250000  0.18750000  0.68750000  1.0
  O  O8179  1  0.81250000  0.18750000  0.93750000  1.0
  O  O8180  1  0.81250000  0.43750000  0.18750000  1.0
  O  O8181  1  0.81250000  0.43750000  0.43750000  1.0
  O  O8182  1  0.81250000  0.43750000  0.68750000  1.0
  O  O8183  1  0.81250000  0.43750000  0.93750000  1.0
  O  O8184  1  0.81250000  0.68750000  0.18750000  1.0
  O  O8185  1  0.81250000  0.68750000  0.43750000  1.0
  O  O8186  1  0.81250000  0.68750000  0.68750000  1.0
  O  O8187  1  0.81250000  0.68750000  0.93750000  1.0
  O  O8188  1  0.81250000  0.93750000  0.18750000  1.0
  O  O8189  1  0.81250000  0.93750000  0.43750000  1.0
  O  O8190  1  0.81250000  0.93750000  0.68750000  1.0
  O  O8191  1  0.81250000  0.93750000  0.93750000  1.0
