# generated using pymatgen
data_NaCaMg2Be2Nb6O4
_symmetry_space_group_name_H-M   'P 1'
_cell_length_a   20.80740000
_cell_length_b   20.80740000
_cell_length_c   20.80740000
_cell_angle_alpha   90.00000000
_cell_angle_beta   90.00000000
_cell_angle_gamma   90.00000000
_symmetry_Int_Tables_number   1
_chemical_formula_structural   NaCaMg2Be2Nb6O4
_chemical_formula_sum   'Na64 Ca64 Mg128 Be128 Nb384 O256'
_cell_volume   9008.52002543
_cell_formula_units_Z   64
loop_
 _symmetry_equiv_pos_site_id
 _symmetry_equiv_pos_as_xyz
  1  'x, y, z'
loop_
 _atom_site_type_symbol
 _atom_site_label
 _atom_site_symmetry_multiplicity
 _atom_site_fract_x
 _atom_site_fract_y
 _atom_site_fract_z
 _atom_site_occupancy
  Na  Na0  1  0.18750000  0.18750000  0.18750000  1.0
  Na  Na1  1  0.18750000  0.18750000  0.68750000  1.0
  Na  Na2  1  0.18750000  0.68750000  0.18750000  1.0
  Na  Na3  1  0.18750000  0.68750000  0.68750000  1.0
  Na  Na4  1  0.68750000  0.18750000  0.18750000  1.0
  Na  Na5  1  0.68750000  0.18750000  0.68750000  1.0
  Na  Na6  1  0.68750000  0.68750000  0.18750000  1.0
  Na  Na7  1  0.68750000  0.68750000  0.68750000  1.0
  Na  Na8  1  0.43750000  0.43750000  0.18750000  1.0
  Na  Na9  1  0.43750000  0.43750000  0.68750000  1.0
  Na  Na10  1  0.43750000  0.93750000  0.18750000  1.0
  Na  Na11  1  0.43750000  0.93750000  0.68750000  1.0
  Na  Na12  1  0.93750000  0.43750000  0.18750000  1.0
  Na  Na13  1  0.93750000  0.43750000  0.68750000  1.0
  Na  Na14  1  0.93750000  0.93750000  0.18750000  1.0
  Na  Na15  1  0.93750000  0.93750000  0.68750000  1.0
  Na  Na16  1  0.43750000  0.18750000  0.43750000  1.0
  Na  Na17  1  0.43750000  0.18750000  0.93750000  1.0
  Na  Na18  1  0.43750000  0.68750000  0.43750000  1.0
  Na  Na19  1  0.43750000  0.68750000  0.93750000  1.0
  Na  Na20  1  0.93750000  0.18750000  0.43750000  1.0
  Na  Na21  1  0.93750000  0.18750000  0.93750000  1.0
  Na  Na22  1  0.93750000  0.68750000  0.43750000  1.0
  Na  Na23  1  0.93750000  0.68750000  0.93750000  1.0
  Na  Na24  1  0.18750000  0.43750000  0.43750000  1.0
  Na  Na25  1  0.18750000  0.43750000  0.93750000  1.0
  Na  Na26  1  0.18750000  0.93750000  0.43750000  1.0
  Na  Na27  1  0.18750000  0.93750000  0.93750000  1.0
  Na  Na28  1  0.68750000  0.43750000  0.43750000  1.0
  Na  Na29  1  0.68750000  0.43750000  0.93750000  1.0
  Na  Na30  1  0.68750000  0.93750000  0.43750000  1.0
  Na  Na31  1  0.68750000  0.93750000  0.93750000  1.0
  Na  Na32  1  0.31250000  0.31250000  0.31250000  1.0
  Na  Na33  1  0.31250000  0.31250000  0.81250000  1.0
  Na  Na34  1  0.31250000  0.81250000  0.31250000  1.0
  Na  Na35  1  0.31250000  0.81250000  0.81250000  1.0
  Na  Na36  1  0.81250000  0.31250000  0.31250000  1.0
  Na  Na37  1  0.81250000  0.31250000  0.81250000  1.0
  Na  Na38  1  0.81250000  0.81250000  0.31250000  1.0
  Na  Na39  1  0.81250000  0.81250000  0.81250000  1.0
  Na  Na40  1  0.06250000  0.06250000  0.31250000  1.0
  Na  Na41  1  0.06250000  0.06250000  0.81250000  1.0
  Na  Na42  1  0.06250000  0.56250000  0.31250000  1.0
  Na  Na43  1  0.06250000  0.56250000  0.81250000  1.0
  Na  Na44  1  0.56250000  0.06250000  0.31250000  1.0
  Na  Na45  1  0.56250000  0.06250000  0.81250000  1.0
  Na  Na46  1  0.56250000  0.56250000  0.31250000  1.0
  Na  Na47  1  0.56250000  0.56250000  0.81250000  1.0
  Na  Na48  1  0.06250000  0.31250000  0.06250000  1.0
  Na  Na49  1  0.06250000  0.31250000  0.56250000  1.0
  Na  Na50  1  0.06250000  0.81250000  0.06250000  1.0
  Na  Na51  1  0.06250000  0.81250000  0.56250000  1.0
  Na  Na52  1  0.56250000  0.31250000  0.06250000  1.0
  Na  Na53  1  0.56250000  0.31250000  0.56250000  1.0
  Na  Na54  1  0.56250000  0.81250000  0.06250000  1.0
  Na  Na55  1  0.56250000  0.81250000  0.56250000  1.0
  Na  Na56  1  0.31250000  0.06250000  0.06250000  1.0
  Na  Na57  1  0.31250000  0.06250000  0.56250000  1.0
  Na  Na58  1  0.31250000  0.56250000  0.06250000  1.0
  Na  Na59  1  0.31250000  0.56250000  0.56250000  1.0
  Na  Na60  1  0.81250000  0.06250000  0.06250000  1.0
  Na  Na61  1  0.81250000  0.06250000  0.56250000  1.0
  Na  Na62  1  0.81250000  0.56250000  0.06250000  1.0
  Na  Na63  1  0.81250000  0.56250000  0.56250000  1.0
  Ca  Ca64  1  0.43750000  0.43750000  0.43750000  1.0
  Ca  Ca65  1  0.43750000  0.43750000  0.93750000  1.0
  Ca  Ca66  1  0.43750000  0.93750000  0.43750000  1.0
  Ca  Ca67  1  0.43750000  0.93750000  0.93750000  1.0
  Ca  Ca68  1  0.93750000  0.43750000  0.43750000  1.0
  Ca  Ca69  1  0.93750000  0.43750000  0.93750000  1.0
  Ca  Ca70  1  0.93750000  0.93750000  0.43750000  1.0
  Ca  Ca71  1  0.93750000  0.93750000  0.93750000  1.0
  Ca  Ca72  1  0.18750000  0.18750000  0.43750000  1.0
  Ca  Ca73  1  0.18750000  0.18750000  0.93750000  1.0
  Ca  Ca74  1  0.18750000  0.68750000  0.43750000  1.0
  Ca  Ca75  1  0.18750000  0.68750000  0.93750000  1.0
  Ca  Ca76  1  0.68750000  0.18750000  0.43750000  1.0
  Ca  Ca77  1  0.68750000  0.18750000  0.93750000  1.0
  Ca  Ca78  1  0.68750000  0.68750000  0.43750000  1.0
  Ca  Ca79  1  0.68750000  0.68750000  0.93750000  1.0
  Ca  Ca80  1  0.18750000  0.43750000  0.18750000  1.0
  Ca  Ca81  1  0.18750000  0.43750000  0.68750000  1.0
  Ca  Ca82  1  0.18750000  0.93750000  0.18750000  1.0
  Ca  Ca83  1  0.18750000  0.93750000  0.68750000  1.0
  Ca  Ca84  1  0.68750000  0.43750000  0.18750000  1.0
  Ca  Ca85  1  0.68750000  0.43750000  0.68750000  1.0
  Ca  Ca86  1  0.68750000  0.93750000  0.18750000  1.0
  Ca  Ca87  1  0.68750000  0.93750000  0.68750000  1.0
  Ca  Ca88  1  0.43750000  0.18750000  0.18750000  1.0
  Ca  Ca89  1  0.43750000  0.18750000  0.68750000  1.0
  Ca  Ca90  1  0.43750000  0.68750000  0.18750000  1.0
  Ca  Ca91  1  0.43750000  0.68750000  0.68750000  1.0
  Ca  Ca92  1  0.93750000  0.18750000  0.18750000  1.0
  Ca  Ca93  1  0.93750000  0.18750000  0.68750000  1.0
  Ca  Ca94  1  0.93750000  0.68750000  0.18750000  1.0
  Ca  Ca95  1  0.93750000  0.68750000  0.68750000  1.0
  Ca  Ca96  1  0.06250000  0.06250000  0.06250000  1.0
  Ca  Ca97  1  0.06250000  0.06250000  0.56250000  1.0
  Ca  Ca98  1  0.06250000  0.56250000  0.06250000  1.0
  Ca  Ca99  1  0.06250000  0.56250000  0.56250000  1.0
  Ca  Ca100  1  0.56250000  0.06250000  0.06250000  1.0
  Ca  Ca101  1  0.56250000  0.06250000  0.56250000  1.0
  Ca  Ca102  1  0.56250000  0.56250000  0.06250000  1.0
  Ca  Ca103  1  0.56250000  0.56250000  0.56250000  1.0
  Ca  Ca104  1  0.31250000  0.31250000  0.06250000  1.0
  Ca  Ca105  1  0.31250000  0.31250000  0.56250000  1.0
  Ca  Ca106  1  0.31250000  0.81250000  0.06250000  1.0
  Ca  Ca107  1  0.31250000  0.81250000  0.56250000  1.0
  Ca  Ca108  1  0.81250000  0.31250000  0.06250000  1.0
  Ca  Ca109  1  0.81250000  0.31250000  0.56250000  1.0
  Ca  Ca110  1  0.81250000  0.81250000  0.06250000  1.0
  Ca  Ca111  1  0.81250000  0.81250000  0.56250000  1.0
  Ca  Ca112  1  0.31250000  0.06250000  0.31250000  1.0
  Ca  Ca113  1  0.31250000  0.06250000  0.81250000  1.0
  Ca  Ca114  1  0.31250000  0.56250000  0.31250000  1.0
  Ca  Ca115  1  0.31250000  0.56250000  0.81250000  1.0
  Ca  Ca116  1  0.81250000  0.06250000  0.31250000  1.0
  Ca  Ca117  1  0.81250000  0.06250000  0.81250000  1.0
  Ca  Ca118  1  0.81250000  0.56250000  0.31250000  1.0
  Ca  Ca119  1  0.81250000  0.56250000  0.81250000  1.0
  Ca  Ca120  1  0.06250000  0.31250000  0.31250000  1.0
  Ca  Ca121  1  0.06250000  0.31250000  0.81250000  1.0
  Ca  Ca122  1  0.06250000  0.81250000  0.31250000  1.0
  Ca  Ca123  1  0.06250000  0.81250000  0.81250000  1.0
  Ca  Ca124  1  0.56250000  0.31250000  0.31250000  1.0
  Ca  Ca125  1  0.56250000  0.31250000  0.81250000  1.0
  Ca  Ca126  1  0.56250000  0.81250000  0.31250000  1.0
  Ca  Ca127  1  0.56250000  0.81250000  0.81250000  1.0
  Mg  Mg128  1  0.25000000  0.25000000  0.25000000  1.0
  Mg  Mg129  1  0.25000000  0.25000000  0.75000000  1.0
  Mg  Mg130  1  0.25000000  0.75000000  0.25000000  1.0
  Mg  Mg131  1  0.25000000  0.75000000  0.75000000  1.0
  Mg  Mg132  1  0.75000000  0.25000000  0.25000000  1.0
  Mg  Mg133  1  0.75000000  0.25000000  0.75000000  1.0
  Mg  Mg134  1  0.75000000  0.75000000  0.25000000  1.0
  Mg  Mg135  1  0.75000000  0.75000000  0.75000000  1.0
  Mg  Mg136  1  0.00000000  0.00000000  0.25000000  1.0
  Mg  Mg137  1  0.00000000  0.00000000  0.75000000  1.0
  Mg  Mg138  1  0.00000000  0.50000000  0.25000000  1.0
  Mg  Mg139  1  0.00000000  0.50000000  0.75000000  1.0
  Mg  Mg140  1  0.50000000  0.00000000  0.25000000  1.0
  Mg  Mg141  1  0.50000000  0.00000000  0.75000000  1.0
  Mg  Mg142  1  0.50000000  0.50000000  0.25000000  1.0
  Mg  Mg143  1  0.50000000  0.50000000  0.75000000  1.0
  Mg  Mg144  1  0.00000000  0.25000000  0.00000000  1.0
  Mg  Mg145  1  0.00000000  0.25000000  0.50000000  1.0
  Mg  Mg146  1  0.00000000  0.75000000  0.00000000  1.0
  Mg  Mg147  1  0.00000000  0.75000000  0.50000000  1.0
  Mg  Mg148  1  0.50000000  0.25000000  0.00000000  1.0
  Mg  Mg149  1  0.50000000  0.25000000  0.50000000  1.0
  Mg  Mg150  1  0.50000000  0.75000000  0.00000000  1.0
  Mg  Mg151  1  0.50000000  0.75000000  0.50000000  1.0
  Mg  Mg152  1  0.25000000  0.00000000  0.00000000  1.0
  Mg  Mg153  1  0.25000000  0.00000000  0.50000000  1.0
  Mg  Mg154  1  0.25000000  0.50000000  0.00000000  1.0
  Mg  Mg155  1  0.25000000  0.50000000  0.50000000  1.0
  Mg  Mg156  1  0.75000000  0.00000000  0.00000000  1.0
  Mg  Mg157  1  0.75000000  0.00000000  0.50000000  1.0
  Mg  Mg158  1  0.75000000  0.50000000  0.00000000  1.0
  Mg  Mg159  1  0.75000000  0.50000000  0.50000000  1.0
  Mg  Mg160  1  0.25000000  0.12500000  0.12500000  1.0
  Mg  Mg161  1  0.25000000  0.12500000  0.62500000  1.0
  Mg  Mg162  1  0.25000000  0.62500000  0.12500000  1.0
  Mg  Mg163  1  0.25000000  0.62500000  0.62500000  1.0
  Mg  Mg164  1  0.75000000  0.12500000  0.12500000  1.0
  Mg  Mg165  1  0.75000000  0.12500000  0.62500000  1.0
  Mg  Mg166  1  0.75000000  0.62500000  0.12500000  1.0
  Mg  Mg167  1  0.75000000  0.62500000  0.62500000  1.0
  Mg  Mg168  1  0.00000000  0.37500000  0.12500000  1.0
  Mg  Mg169  1  0.00000000  0.37500000  0.62500000  1.0
  Mg  Mg170  1  0.00000000  0.87500000  0.12500000  1.0
  Mg  Mg171  1  0.00000000  0.87500000  0.62500000  1.0
  Mg  Mg172  1  0.50000000  0.37500000  0.12500000  1.0
  Mg  Mg173  1  0.50000000  0.37500000  0.62500000  1.0
  Mg  Mg174  1  0.50000000  0.87500000  0.12500000  1.0
  Mg  Mg175  1  0.50000000  0.87500000  0.62500000  1.0
  Mg  Mg176  1  0.00000000  0.12500000  0.37500000  1.0
  Mg  Mg177  1  0.00000000  0.12500000  0.87500000  1.0
  Mg  Mg178  1  0.00000000  0.62500000  0.37500000  1.0
  Mg  Mg179  1  0.00000000  0.62500000  0.87500000  1.0
  Mg  Mg180  1  0.50000000  0.12500000  0.37500000  1.0
  Mg  Mg181  1  0.50000000  0.12500000  0.87500000  1.0
  Mg  Mg182  1  0.50000000  0.62500000  0.37500000  1.0
  Mg  Mg183  1  0.50000000  0.62500000  0.87500000  1.0
  Mg  Mg184  1  0.25000000  0.37500000  0.37500000  1.0
  Mg  Mg185  1  0.25000000  0.37500000  0.87500000  1.0
  Mg  Mg186  1  0.25000000  0.87500000  0.37500000  1.0
  Mg  Mg187  1  0.25000000  0.87500000  0.87500000  1.0
  Mg  Mg188  1  0.75000000  0.37500000  0.37500000  1.0
  Mg  Mg189  1  0.75000000  0.37500000  0.87500000  1.0
  Mg  Mg190  1  0.75000000  0.87500000  0.37500000  1.0
  Mg  Mg191  1  0.75000000  0.87500000  0.87500000  1.0
  Mg  Mg192  1  0.12500000  0.25000000  0.12500000  1.0
  Mg  Mg193  1  0.12500000  0.25000000  0.62500000  1.0
  Mg  Mg194  1  0.12500000  0.75000000  0.12500000  1.0
  Mg  Mg195  1  0.12500000  0.75000000  0.62500000  1.0
  Mg  Mg196  1  0.62500000  0.25000000  0.12500000  1.0
  Mg  Mg197  1  0.62500000  0.25000000  0.62500000  1.0
  Mg  Mg198  1  0.62500000  0.75000000  0.12500000  1.0
  Mg  Mg199  1  0.62500000  0.75000000  0.62500000  1.0
  Mg  Mg200  1  0.37500000  0.00000000  0.12500000  1.0
  Mg  Mg201  1  0.37500000  0.00000000  0.62500000  1.0
  Mg  Mg202  1  0.37500000  0.50000000  0.12500000  1.0
  Mg  Mg203  1  0.37500000  0.50000000  0.62500000  1.0
  Mg  Mg204  1  0.87500000  0.00000000  0.12500000  1.0
  Mg  Mg205  1  0.87500000  0.00000000  0.62500000  1.0
  Mg  Mg206  1  0.87500000  0.50000000  0.12500000  1.0
  Mg  Mg207  1  0.87500000  0.50000000  0.62500000  1.0
  Mg  Mg208  1  0.37500000  0.25000000  0.37500000  1.0
  Mg  Mg209  1  0.37500000  0.25000000  0.87500000  1.0
  Mg  Mg210  1  0.37500000  0.75000000  0.37500000  1.0
  Mg  Mg211  1  0.37500000  0.75000000  0.87500000  1.0
  Mg  Mg212  1  0.87500000  0.25000000  0.37500000  1.0
  Mg  Mg213  1  0.87500000  0.25000000  0.87500000  1.0
  Mg  Mg214  1  0.87500000  0.75000000  0.37500000  1.0
  Mg  Mg215  1  0.87500000  0.75000000  0.87500000  1.0
  Mg  Mg216  1  0.12500000  0.00000000  0.37500000  1.0
  Mg  Mg217  1  0.12500000  0.00000000  0.87500000  1.0
  Mg  Mg218  1  0.12500000  0.50000000  0.37500000  1.0
  Mg  Mg219  1  0.12500000  0.50000000  0.87500000  1.0
  Mg  Mg220  1  0.62500000  0.00000000  0.37500000  1.0
  Mg  Mg221  1  0.62500000  0.00000000  0.87500000  1.0
  Mg  Mg222  1  0.62500000  0.50000000  0.37500000  1.0
  Mg  Mg223  1  0.62500000  0.50000000  0.87500000  1.0
  Mg  Mg224  1  0.12500000  0.12500000  0.25000000  1.0
  Mg  Mg225  1  0.12500000  0.12500000  0.75000000  1.0
  Mg  Mg226  1  0.12500000  0.62500000  0.25000000  1.0
  Mg  Mg227  1  0.12500000  0.62500000  0.75000000  1.0
  Mg  Mg228  1  0.62500000  0.12500000  0.25000000  1.0
  Mg  Mg229  1  0.62500000  0.12500000  0.75000000  1.0
  Mg  Mg230  1  0.62500000  0.62500000  0.25000000  1.0
  Mg  Mg231  1  0.62500000  0.62500000  0.75000000  1.0
  Mg  Mg232  1  0.37500000  0.37500000  0.25000000  1.0
  Mg  Mg233  1  0.37500000  0.37500000  0.75000000  1.0
  Mg  Mg234  1  0.37500000  0.87500000  0.25000000  1.0
  Mg  Mg235  1  0.37500000  0.87500000  0.75000000  1.0
  Mg  Mg236  1  0.87500000  0.37500000  0.25000000  1.0
  Mg  Mg237  1  0.87500000  0.37500000  0.75000000  1.0
  Mg  Mg238  1  0.87500000  0.87500000  0.25000000  1.0
  Mg  Mg239  1  0.87500000  0.87500000  0.75000000  1.0
  Mg  Mg240  1  0.37500000  0.12500000  0.00000000  1.0
  Mg  Mg241  1  0.37500000  0.12500000  0.50000000  1.0
  Mg  Mg242  1  0.37500000  0.62500000  0.00000000  1.0
  Mg  Mg243  1  0.37500000  0.62500000  0.50000000  1.0
  Mg  Mg244  1  0.87500000  0.12500000  0.00000000  1.0
  Mg  Mg245  1  0.87500000  0.12500000  0.50000000  1.0
  Mg  Mg246  1  0.87500000  0.62500000  0.00000000  1.0
  Mg  Mg247  1  0.87500000  0.62500000  0.50000000  1.0
  Mg  Mg248  1  0.12500000  0.37500000  0.00000000  1.0
  Mg  Mg249  1  0.12500000  0.37500000  0.50000000  1.0
  Mg  Mg250  1  0.12500000  0.87500000  0.00000000  1.0
  Mg  Mg251  1  0.12500000  0.87500000  0.50000000  1.0
  Mg  Mg252  1  0.62500000  0.37500000  0.00000000  1.0
  Mg  Mg253  1  0.62500000  0.37500000  0.50000000  1.0
  Mg  Mg254  1  0.62500000  0.87500000  0.00000000  1.0
  Mg  Mg255  1  0.62500000  0.87500000  0.50000000  1.0
  Be  Be256  1  0.12500000  0.12500000  0.00000000  1.0
  Be  Be257  1  0.12500000  0.12500000  0.50000000  1.0
  Be  Be258  1  0.12500000  0.62500000  0.00000000  1.0
  Be  Be259  1  0.12500000  0.62500000  0.50000000  1.0
  Be  Be260  1  0.62500000  0.12500000  0.00000000  1.0
  Be  Be261  1  0.62500000  0.12500000  0.50000000  1.0
  Be  Be262  1  0.62500000  0.62500000  0.00000000  1.0
  Be  Be263  1  0.62500000  0.62500000  0.50000000  1.0
  Be  Be264  1  0.37500000  0.37500000  0.00000000  1.0
  Be  Be265  1  0.37500000  0.37500000  0.50000000  1.0
  Be  Be266  1  0.37500000  0.87500000  0.00000000  1.0
  Be  Be267  1  0.37500000  0.87500000  0.50000000  1.0
  Be  Be268  1  0.87500000  0.37500000  0.00000000  1.0
  Be  Be269  1  0.87500000  0.37500000  0.50000000  1.0
  Be  Be270  1  0.87500000  0.87500000  0.00000000  1.0
  Be  Be271  1  0.87500000  0.87500000  0.50000000  1.0
  Be  Be272  1  0.37500000  0.12500000  0.25000000  1.0
  Be  Be273  1  0.37500000  0.12500000  0.75000000  1.0
  Be  Be274  1  0.37500000  0.62500000  0.25000000  1.0
  Be  Be275  1  0.37500000  0.62500000  0.75000000  1.0
  Be  Be276  1  0.87500000  0.12500000  0.25000000  1.0
  Be  Be277  1  0.87500000  0.12500000  0.75000000  1.0
  Be  Be278  1  0.87500000  0.62500000  0.25000000  1.0
  Be  Be279  1  0.87500000  0.62500000  0.75000000  1.0
  Be  Be280  1  0.12500000  0.37500000  0.25000000  1.0
  Be  Be281  1  0.12500000  0.37500000  0.75000000  1.0
  Be  Be282  1  0.12500000  0.87500000  0.25000000  1.0
  Be  Be283  1  0.12500000  0.87500000  0.75000000  1.0
  Be  Be284  1  0.62500000  0.37500000  0.25000000  1.0
  Be  Be285  1  0.62500000  0.37500000  0.75000000  1.0
  Be  Be286  1  0.62500000  0.87500000  0.25000000  1.0
  Be  Be287  1  0.62500000  0.87500000  0.75000000  1.0
  Be  Be288  1  0.12500000  0.00000000  0.12500000  1.0
  Be  Be289  1  0.12500000  0.00000000  0.62500000  1.0
  Be  Be290  1  0.12500000  0.50000000  0.12500000  1.0
  Be  Be291  1  0.12500000  0.50000000  0.62500000  1.0
  Be  Be292  1  0.62500000  0.00000000  0.12500000  1.0
  Be  Be293  1  0.62500000  0.00000000  0.62500000  1.0
  Be  Be294  1  0.62500000  0.50000000  0.12500000  1.0
  Be  Be295  1  0.62500000  0.50000000  0.62500000  1.0
  Be  Be296  1  0.37500000  0.25000000  0.12500000  1.0
  Be  Be297  1  0.37500000  0.25000000  0.62500000  1.0
  Be  Be298  1  0.37500000  0.75000000  0.12500000  1.0
  Be  Be299  1  0.37500000  0.75000000  0.62500000  1.0
  Be  Be300  1  0.87500000  0.25000000  0.12500000  1.0
  Be  Be301  1  0.87500000  0.25000000  0.62500000  1.0
  Be  Be302  1  0.87500000  0.75000000  0.12500000  1.0
  Be  Be303  1  0.87500000  0.75000000  0.62500000  1.0
  Be  Be304  1  0.37500000  0.00000000  0.37500000  1.0
  Be  Be305  1  0.37500000  0.00000000  0.87500000  1.0
  Be  Be306  1  0.37500000  0.50000000  0.37500000  1.0
  Be  Be307  1  0.37500000  0.50000000  0.87500000  1.0
  Be  Be308  1  0.87500000  0.00000000  0.37500000  1.0
  Be  Be309  1  0.87500000  0.00000000  0.87500000  1.0
  Be  Be310  1  0.87500000  0.50000000  0.37500000  1.0
  Be  Be311  1  0.87500000  0.50000000  0.87500000  1.0
  Be  Be312  1  0.12500000  0.25000000  0.37500000  1.0
  Be  Be313  1  0.12500000  0.25000000  0.87500000  1.0
  Be  Be314  1  0.12500000  0.75000000  0.37500000  1.0
  Be  Be315  1  0.12500000  0.75000000  0.87500000  1.0
  Be  Be316  1  0.62500000  0.25000000  0.37500000  1.0
  Be  Be317  1  0.62500000  0.25000000  0.87500000  1.0
  Be  Be318  1  0.62500000  0.75000000  0.37500000  1.0
  Be  Be319  1  0.62500000  0.75000000  0.87500000  1.0
  Be  Be320  1  0.00000000  0.12500000  0.12500000  1.0
  Be  Be321  1  0.00000000  0.12500000  0.62500000  1.0
  Be  Be322  1  0.00000000  0.62500000  0.12500000  1.0
  Be  Be323  1  0.00000000  0.62500000  0.62500000  1.0
  Be  Be324  1  0.50000000  0.12500000  0.12500000  1.0
  Be  Be325  1  0.50000000  0.12500000  0.62500000  1.0
  Be  Be326  1  0.50000000  0.62500000  0.12500000  1.0
  Be  Be327  1  0.50000000  0.62500000  0.62500000  1.0
  Be  Be328  1  0.25000000  0.37500000  0.12500000  1.0
  Be  Be329  1  0.25000000  0.37500000  0.62500000  1.0
  Be  Be330  1  0.25000000  0.87500000  0.12500000  1.0
  Be  Be331  1  0.25000000  0.87500000  0.62500000  1.0
  Be  Be332  1  0.75000000  0.37500000  0.12500000  1.0
  Be  Be333  1  0.75000000  0.37500000  0.62500000  1.0
  Be  Be334  1  0.75000000  0.87500000  0.12500000  1.0
  Be  Be335  1  0.75000000  0.87500000  0.62500000  1.0
  Be  Be336  1  0.25000000  0.12500000  0.37500000  1.0
  Be  Be337  1  0.25000000  0.12500000  0.87500000  1.0
  Be  Be338  1  0.25000000  0.62500000  0.37500000  1.0
  Be  Be339  1  0.25000000  0.62500000  0.87500000  1.0
  Be  Be340  1  0.75000000  0.12500000  0.37500000  1.0
  Be  Be341  1  0.75000000  0.12500000  0.87500000  1.0
  Be  Be342  1  0.75000000  0.62500000  0.37500000  1.0
  Be  Be343  1  0.75000000  0.62500000  0.87500000  1.0
  Be  Be344  1  0.00000000  0.37500000  0.37500000  1.0
  Be  Be345  1  0.00000000  0.37500000  0.87500000  1.0
  Be  Be346  1  0.00000000  0.87500000  0.37500000  1.0
  Be  Be347  1  0.00000000  0.87500000  0.87500000  1.0
  Be  Be348  1  0.50000000  0.37500000  0.37500000  1.0
  Be  Be349  1  0.50000000  0.37500000  0.87500000  1.0
  Be  Be350  1  0.50000000  0.87500000  0.37500000  1.0
  Be  Be351  1  0.50000000  0.87500000  0.87500000  1.0
  Be  Be352  1  0.00000000  0.00000000  0.00000000  1.0
  Be  Be353  1  0.00000000  0.00000000  0.50000000  1.0
  Be  Be354  1  0.00000000  0.50000000  0.00000000  1.0
  Be  Be355  1  0.00000000  0.50000000  0.50000000  1.0
  Be  Be356  1  0.50000000  0.00000000  0.00000000  1.0
  Be  Be357  1  0.50000000  0.00000000  0.50000000  1.0
  Be  Be358  1  0.50000000  0.50000000  0.00000000  1.0
  Be  Be359  1  0.50000000  0.50000000  0.50000000  1.0
  Be  Be360  1  0.25000000  0.25000000  0.00000000  1.0
  Be  Be361  1  0.25000000  0.25000000  0.50000000  1.0
  Be  Be362  1  0.25000000  0.75000000  0.00000000  1.0
  Be  Be363  1  0.25000000  0.75000000  0.50000000  1.0
  Be  Be364  1  0.75000000  0.25000000  0.00000000  1.0
  Be  Be365  1  0.75000000  0.25000000  0.50000000  1.0
  Be  Be366  1  0.75000000  0.75000000  0.00000000  1.0
  Be  Be367  1  0.75000000  0.75000000  0.50000000  1.0
  Be  Be368  1  0.25000000  0.00000000  0.25000000  1.0
  Be  Be369  1  0.25000000  0.00000000  0.75000000  1.0
  Be  Be370  1  0.25000000  0.50000000  0.25000000  1.0
  Be  Be371  1  0.25000000  0.50000000  0.75000000  1.0
  Be  Be372  1  0.75000000  0.00000000  0.25000000  1.0
  Be  Be373  1  0.75000000  0.00000000  0.75000000  1.0
  Be  Be374  1  0.75000000  0.50000000  0.25000000  1.0
  Be  Be375  1  0.75000000  0.50000000  0.75000000  1.0
  Be  Be376  1  0.00000000  0.25000000  0.25000000  1.0
  Be  Be377  1  0.00000000  0.25000000  0.75000000  1.0
  Be  Be378  1  0.00000000  0.75000000  0.25000000  1.0
  Be  Be379  1  0.00000000  0.75000000  0.75000000  1.0
  Be  Be380  1  0.50000000  0.25000000  0.25000000  1.0
  Be  Be381  1  0.50000000  0.25000000  0.75000000  1.0
  Be  Be382  1  0.50000000  0.75000000  0.25000000  1.0
  Be  Be383  1  0.50000000  0.75000000  0.75000000  1.0
  Nb  Nb384  1  0.43750000  0.31250000  0.31250000  1.0
  Nb  Nb385  1  0.43750000  0.31250000  0.81250000  1.0
  Nb  Nb386  1  0.43750000  0.81250000  0.31250000  1.0
  Nb  Nb387  1  0.43750000  0.81250000  0.81250000  1.0
  Nb  Nb388  1  0.93750000  0.31250000  0.31250000  1.0
  Nb  Nb389  1  0.93750000  0.31250000  0.81250000  1.0
  Nb  Nb390  1  0.93750000  0.81250000  0.31250000  1.0
  Nb  Nb391  1  0.93750000  0.81250000  0.81250000  1.0
  Nb  Nb392  1  0.18750000  0.06250000  0.31250000  1.0
  Nb  Nb393  1  0.18750000  0.06250000  0.81250000  1.0
  Nb  Nb394  1  0.18750000  0.56250000  0.31250000  1.0
  Nb  Nb395  1  0.18750000  0.56250000  0.81250000  1.0
  Nb  Nb396  1  0.68750000  0.06250000  0.31250000  1.0
  Nb  Nb397  1  0.68750000  0.06250000  0.81250000  1.0
  Nb  Nb398  1  0.68750000  0.56250000  0.31250000  1.0
  Nb  Nb399  1  0.68750000  0.56250000  0.81250000  1.0
  Nb  Nb400  1  0.18750000  0.31250000  0.06250000  1.0
  Nb  Nb401  1  0.18750000  0.31250000  0.56250000  1.0
  Nb  Nb402  1  0.18750000  0.81250000  0.06250000  1.0
  Nb  Nb403  1  0.18750000  0.81250000  0.56250000  1.0
  Nb  Nb404  1  0.68750000  0.31250000  0.06250000  1.0
  Nb  Nb405  1  0.68750000  0.31250000  0.56250000  1.0
  Nb  Nb406  1  0.68750000  0.81250000  0.06250000  1.0
  Nb  Nb407  1  0.68750000  0.81250000  0.56250000  1.0
  Nb  Nb408  1  0.43750000  0.06250000  0.06250000  1.0
  Nb  Nb409  1  0.43750000  0.06250000  0.56250000  1.0
  Nb  Nb410  1  0.43750000  0.56250000  0.06250000  1.0
  Nb  Nb411  1  0.43750000  0.56250000  0.56250000  1.0
  Nb  Nb412  1  0.93750000  0.06250000  0.06250000  1.0
  Nb  Nb413  1  0.93750000  0.06250000  0.56250000  1.0
  Nb  Nb414  1  0.93750000  0.56250000  0.06250000  1.0
  Nb  Nb415  1  0.93750000  0.56250000  0.56250000  1.0
  Nb  Nb416  1  0.31250000  0.43750000  0.31250000  1.0
  Nb  Nb417  1  0.31250000  0.43750000  0.81250000  1.0
  Nb  Nb418  1  0.31250000  0.93750000  0.31250000  1.0
  Nb  Nb419  1  0.31250000  0.93750000  0.81250000  1.0
  Nb  Nb420  1  0.81250000  0.43750000  0.31250000  1.0
  Nb  Nb421  1  0.81250000  0.43750000  0.81250000  1.0
  Nb  Nb422  1  0.81250000  0.93750000  0.31250000  1.0
  Nb  Nb423  1  0.81250000  0.93750000  0.81250000  1.0
  Nb  Nb424  1  0.06250000  0.18750000  0.31250000  1.0
  Nb  Nb425  1  0.06250000  0.18750000  0.81250000  1.0
  Nb  Nb426  1  0.06250000  0.68750000  0.31250000  1.0
  Nb  Nb427  1  0.06250000  0.68750000  0.81250000  1.0
  Nb  Nb428  1  0.56250000  0.18750000  0.31250000  1.0
  Nb  Nb429  1  0.56250000  0.18750000  0.81250000  1.0
  Nb  Nb430  1  0.56250000  0.68750000  0.31250000  1.0
  Nb  Nb431  1  0.56250000  0.68750000  0.81250000  1.0
  Nb  Nb432  1  0.06250000  0.43750000  0.06250000  1.0
  Nb  Nb433  1  0.06250000  0.43750000  0.56250000  1.0
  Nb  Nb434  1  0.06250000  0.93750000  0.06250000  1.0
  Nb  Nb435  1  0.06250000  0.93750000  0.56250000  1.0
  Nb  Nb436  1  0.56250000  0.43750000  0.06250000  1.0
  Nb  Nb437  1  0.56250000  0.43750000  0.56250000  1.0
  Nb  Nb438  1  0.56250000  0.93750000  0.06250000  1.0
  Nb  Nb439  1  0.56250000  0.93750000  0.56250000  1.0
  Nb  Nb440  1  0.31250000  0.18750000  0.06250000  1.0
  Nb  Nb441  1  0.31250000  0.18750000  0.56250000  1.0
  Nb  Nb442  1  0.31250000  0.68750000  0.06250000  1.0
  Nb  Nb443  1  0.31250000  0.68750000  0.56250000  1.0
  Nb  Nb444  1  0.81250000  0.18750000  0.06250000  1.0
  Nb  Nb445  1  0.81250000  0.18750000  0.56250000  1.0
  Nb  Nb446  1  0.81250000  0.68750000  0.06250000  1.0
  Nb  Nb447  1  0.81250000  0.68750000  0.56250000  1.0
  Nb  Nb448  1  0.31250000  0.31250000  0.18750000  1.0
  Nb  Nb449  1  0.31250000  0.31250000  0.68750000  1.0
  Nb  Nb450  1  0.31250000  0.81250000  0.18750000  1.0
  Nb  Nb451  1  0.31250000  0.81250000  0.68750000  1.0
  Nb  Nb452  1  0.81250000  0.31250000  0.18750000  1.0
  Nb  Nb453  1  0.81250000  0.31250000  0.68750000  1.0
  Nb  Nb454  1  0.81250000  0.81250000  0.18750000  1.0
  Nb  Nb455  1  0.81250000  0.81250000  0.68750000  1.0
  Nb  Nb456  1  0.06250000  0.06250000  0.18750000  1.0
  Nb  Nb457  1  0.06250000  0.06250000  0.68750000  1.0
  Nb  Nb458  1  0.06250000  0.56250000  0.18750000  1.0
  Nb  Nb459  1  0.06250000  0.56250000  0.68750000  1.0
  Nb  Nb460  1  0.56250000  0.06250000  0.18750000  1.0
  Nb  Nb461  1  0.56250000  0.06250000  0.68750000  1.0
  Nb  Nb462  1  0.56250000  0.56250000  0.18750000  1.0
  Nb  Nb463  1  0.56250000  0.56250000  0.68750000  1.0
  Nb  Nb464  1  0.06250000  0.31250000  0.43750000  1.0
  Nb  Nb465  1  0.06250000  0.31250000  0.93750000  1.0
  Nb  Nb466  1  0.06250000  0.81250000  0.43750000  1.0
  Nb  Nb467  1  0.06250000  0.81250000  0.93750000  1.0
  Nb  Nb468  1  0.56250000  0.31250000  0.43750000  1.0
  Nb  Nb469  1  0.56250000  0.31250000  0.93750000  1.0
  Nb  Nb470  1  0.56250000  0.81250000  0.43750000  1.0
  Nb  Nb471  1  0.56250000  0.81250000  0.93750000  1.0
  Nb  Nb472  1  0.31250000  0.06250000  0.43750000  1.0
  Nb  Nb473  1  0.31250000  0.06250000  0.93750000  1.0
  Nb  Nb474  1  0.31250000  0.56250000  0.43750000  1.0
  Nb  Nb475  1  0.31250000  0.56250000  0.93750000  1.0
  Nb  Nb476  1  0.81250000  0.06250000  0.43750000  1.0
  Nb  Nb477  1  0.81250000  0.06250000  0.93750000  1.0
  Nb  Nb478  1  0.81250000  0.56250000  0.43750000  1.0
  Nb  Nb479  1  0.81250000  0.56250000  0.93750000  1.0
  Nb  Nb480  1  0.31250000  0.31250000  0.43750000  1.0
  Nb  Nb481  1  0.31250000  0.31250000  0.93750000  1.0
  Nb  Nb482  1  0.31250000  0.81250000  0.43750000  1.0
  Nb  Nb483  1  0.31250000  0.81250000  0.93750000  1.0
  Nb  Nb484  1  0.81250000  0.31250000  0.43750000  1.0
  Nb  Nb485  1  0.81250000  0.31250000  0.93750000  1.0
  Nb  Nb486  1  0.81250000  0.81250000  0.43750000  1.0
  Nb  Nb487  1  0.81250000  0.81250000  0.93750000  1.0
  Nb  Nb488  1  0.06250000  0.06250000  0.43750000  1.0
  Nb  Nb489  1  0.06250000  0.06250000  0.93750000  1.0
  Nb  Nb490  1  0.06250000  0.56250000  0.43750000  1.0
  Nb  Nb491  1  0.06250000  0.56250000  0.93750000  1.0
  Nb  Nb492  1  0.56250000  0.06250000  0.43750000  1.0
  Nb  Nb493  1  0.56250000  0.06250000  0.93750000  1.0
  Nb  Nb494  1  0.56250000  0.56250000  0.43750000  1.0
  Nb  Nb495  1  0.56250000  0.56250000  0.93750000  1.0
  Nb  Nb496  1  0.06250000  0.31250000  0.18750000  1.0
  Nb  Nb497  1  0.06250000  0.31250000  0.68750000  1.0
  Nb  Nb498  1  0.06250000  0.81250000  0.18750000  1.0
  Nb  Nb499  1  0.06250000  0.81250000  0.68750000  1.0
  Nb  Nb500  1  0.56250000  0.31250000  0.18750000  1.0
  Nb  Nb501  1  0.56250000  0.31250000  0.68750000  1.0
  Nb  Nb502  1  0.56250000  0.81250000  0.18750000  1.0
  Nb  Nb503  1  0.56250000  0.81250000  0.68750000  1.0
  Nb  Nb504  1  0.31250000  0.06250000  0.18750000  1.0
  Nb  Nb505  1  0.31250000  0.06250000  0.68750000  1.0
  Nb  Nb506  1  0.31250000  0.56250000  0.18750000  1.0
  Nb  Nb507  1  0.31250000  0.56250000  0.68750000  1.0
  Nb  Nb508  1  0.81250000  0.06250000  0.18750000  1.0
  Nb  Nb509  1  0.81250000  0.06250000  0.68750000  1.0
  Nb  Nb510  1  0.81250000  0.56250000  0.18750000  1.0
  Nb  Nb511  1  0.81250000  0.56250000  0.68750000  1.0
  Nb  Nb512  1  0.31250000  0.18750000  0.31250000  1.0
  Nb  Nb513  1  0.31250000  0.18750000  0.81250000  1.0
  Nb  Nb514  1  0.31250000  0.68750000  0.31250000  1.0
  Nb  Nb515  1  0.31250000  0.68750000  0.81250000  1.0
  Nb  Nb516  1  0.81250000  0.18750000  0.31250000  1.0
  Nb  Nb517  1  0.81250000  0.18750000  0.81250000  1.0
  Nb  Nb518  1  0.81250000  0.68750000  0.31250000  1.0
  Nb  Nb519  1  0.81250000  0.68750000  0.81250000  1.0
  Nb  Nb520  1  0.06250000  0.43750000  0.31250000  1.0
  Nb  Nb521  1  0.06250000  0.43750000  0.81250000  1.0
  Nb  Nb522  1  0.06250000  0.93750000  0.31250000  1.0
  Nb  Nb523  1  0.06250000  0.93750000  0.81250000  1.0
  Nb  Nb524  1  0.56250000  0.43750000  0.31250000  1.0
  Nb  Nb525  1  0.56250000  0.43750000  0.81250000  1.0
  Nb  Nb526  1  0.56250000  0.93750000  0.31250000  1.0
  Nb  Nb527  1  0.56250000  0.93750000  0.81250000  1.0
  Nb  Nb528  1  0.06250000  0.18750000  0.06250000  1.0
  Nb  Nb529  1  0.06250000  0.18750000  0.56250000  1.0
  Nb  Nb530  1  0.06250000  0.68750000  0.06250000  1.0
  Nb  Nb531  1  0.06250000  0.68750000  0.56250000  1.0
  Nb  Nb532  1  0.56250000  0.18750000  0.06250000  1.0
  Nb  Nb533  1  0.56250000  0.18750000  0.56250000  1.0
  Nb  Nb534  1  0.56250000  0.68750000  0.06250000  1.0
  Nb  Nb535  1  0.56250000  0.68750000  0.56250000  1.0
  Nb  Nb536  1  0.31250000  0.43750000  0.06250000  1.0
  Nb  Nb537  1  0.31250000  0.43750000  0.56250000  1.0
  Nb  Nb538  1  0.31250000  0.93750000  0.06250000  1.0
  Nb  Nb539  1  0.31250000  0.93750000  0.56250000  1.0
  Nb  Nb540  1  0.81250000  0.43750000  0.06250000  1.0
  Nb  Nb541  1  0.81250000  0.43750000  0.56250000  1.0
  Nb  Nb542  1  0.81250000  0.93750000  0.06250000  1.0
  Nb  Nb543  1  0.81250000  0.93750000  0.56250000  1.0
  Nb  Nb544  1  0.18750000  0.31250000  0.31250000  1.0
  Nb  Nb545  1  0.18750000  0.31250000  0.81250000  1.0
  Nb  Nb546  1  0.18750000  0.81250000  0.31250000  1.0
  Nb  Nb547  1  0.18750000  0.81250000  0.81250000  1.0
  Nb  Nb548  1  0.68750000  0.31250000  0.31250000  1.0
  Nb  Nb549  1  0.68750000  0.31250000  0.81250000  1.0
  Nb  Nb550  1  0.68750000  0.81250000  0.31250000  1.0
  Nb  Nb551  1  0.68750000  0.81250000  0.81250000  1.0
  Nb  Nb552  1  0.43750000  0.06250000  0.31250000  1.0
  Nb  Nb553  1  0.43750000  0.06250000  0.81250000  1.0
  Nb  Nb554  1  0.43750000  0.56250000  0.31250000  1.0
  Nb  Nb555  1  0.43750000  0.56250000  0.81250000  1.0
  Nb  Nb556  1  0.93750000  0.06250000  0.31250000  1.0
  Nb  Nb557  1  0.93750000  0.06250000  0.81250000  1.0
  Nb  Nb558  1  0.93750000  0.56250000  0.31250000  1.0
  Nb  Nb559  1  0.93750000  0.56250000  0.81250000  1.0
  Nb  Nb560  1  0.43750000  0.31250000  0.06250000  1.0
  Nb  Nb561  1  0.43750000  0.31250000  0.56250000  1.0
  Nb  Nb562  1  0.43750000  0.81250000  0.06250000  1.0
  Nb  Nb563  1  0.43750000  0.81250000  0.56250000  1.0
  Nb  Nb564  1  0.93750000  0.31250000  0.06250000  1.0
  Nb  Nb565  1  0.93750000  0.31250000  0.56250000  1.0
  Nb  Nb566  1  0.93750000  0.81250000  0.06250000  1.0
  Nb  Nb567  1  0.93750000  0.81250000  0.56250000  1.0
  Nb  Nb568  1  0.18750000  0.06250000  0.06250000  1.0
  Nb  Nb569  1  0.18750000  0.06250000  0.56250000  1.0
  Nb  Nb570  1  0.18750000  0.56250000  0.06250000  1.0
  Nb  Nb571  1  0.18750000  0.56250000  0.56250000  1.0
  Nb  Nb572  1  0.68750000  0.06250000  0.06250000  1.0
  Nb  Nb573  1  0.68750000  0.06250000  0.56250000  1.0
  Nb  Nb574  1  0.68750000  0.56250000  0.06250000  1.0
  Nb  Nb575  1  0.68750000  0.56250000  0.56250000  1.0
  Nb  Nb576  1  0.31250000  0.18750000  0.18750000  1.0
  Nb  Nb577  1  0.31250000  0.18750000  0.68750000  1.0
  Nb  Nb578  1  0.31250000  0.68750000  0.18750000  1.0
  Nb  Nb579  1  0.31250000  0.68750000  0.68750000  1.0
  Nb  Nb580  1  0.81250000  0.18750000  0.18750000  1.0
  Nb  Nb581  1  0.81250000  0.18750000  0.68750000  1.0
  Nb  Nb582  1  0.81250000  0.68750000  0.18750000  1.0
  Nb  Nb583  1  0.81250000  0.68750000  0.68750000  1.0
  Nb  Nb584  1  0.06250000  0.43750000  0.18750000  1.0
  Nb  Nb585  1  0.06250000  0.43750000  0.68750000  1.0
  Nb  Nb586  1  0.06250000  0.93750000  0.18750000  1.0
  Nb  Nb587  1  0.06250000  0.93750000  0.68750000  1.0
  Nb  Nb588  1  0.56250000  0.43750000  0.18750000  1.0
  Nb  Nb589  1  0.56250000  0.43750000  0.68750000  1.0
  Nb  Nb590  1  0.56250000  0.93750000  0.18750000  1.0
  Nb  Nb591  1  0.56250000  0.93750000  0.68750000  1.0
  Nb  Nb592  1  0.06250000  0.18750000  0.43750000  1.0
  Nb  Nb593  1  0.06250000  0.18750000  0.93750000  1.0
  Nb  Nb594  1  0.06250000  0.68750000  0.43750000  1.0
  Nb  Nb595  1  0.06250000  0.68750000  0.93750000  1.0
  Nb  Nb596  1  0.56250000  0.18750000  0.43750000  1.0
  Nb  Nb597  1  0.56250000  0.18750000  0.93750000  1.0
  Nb  Nb598  1  0.56250000  0.68750000  0.43750000  1.0
  Nb  Nb599  1  0.56250000  0.68750000  0.93750000  1.0
  Nb  Nb600  1  0.31250000  0.43750000  0.43750000  1.0
  Nb  Nb601  1  0.31250000  0.43750000  0.93750000  1.0
  Nb  Nb602  1  0.31250000  0.93750000  0.43750000  1.0
  Nb  Nb603  1  0.31250000  0.93750000  0.93750000  1.0
  Nb  Nb604  1  0.81250000  0.43750000  0.43750000  1.0
  Nb  Nb605  1  0.81250000  0.43750000  0.93750000  1.0
  Nb  Nb606  1  0.81250000  0.93750000  0.43750000  1.0
  Nb  Nb607  1  0.81250000  0.93750000  0.93750000  1.0
  Nb  Nb608  1  0.18750000  0.31250000  0.18750000  1.0
  Nb  Nb609  1  0.18750000  0.31250000  0.68750000  1.0
  Nb  Nb610  1  0.18750000  0.81250000  0.18750000  1.0
  Nb  Nb611  1  0.18750000  0.81250000  0.68750000  1.0
  Nb  Nb612  1  0.68750000  0.31250000  0.18750000  1.0
  Nb  Nb613  1  0.68750000  0.31250000  0.68750000  1.0
  Nb  Nb614  1  0.68750000  0.81250000  0.18750000  1.0
  Nb  Nb615  1  0.68750000  0.81250000  0.68750000  1.0
  Nb  Nb616  1  0.43750000  0.06250000  0.18750000  1.0
  Nb  Nb617  1  0.43750000  0.06250000  0.68750000  1.0
  Nb  Nb618  1  0.43750000  0.56250000  0.18750000  1.0
  Nb  Nb619  1  0.43750000  0.56250000  0.68750000  1.0
  Nb  Nb620  1  0.93750000  0.06250000  0.18750000  1.0
  Nb  Nb621  1  0.93750000  0.06250000  0.68750000  1.0
  Nb  Nb622  1  0.93750000  0.56250000  0.18750000  1.0
  Nb  Nb623  1  0.93750000  0.56250000  0.68750000  1.0
  Nb  Nb624  1  0.43750000  0.31250000  0.43750000  1.0
  Nb  Nb625  1  0.43750000  0.31250000  0.93750000  1.0
  Nb  Nb626  1  0.43750000  0.81250000  0.43750000  1.0
  Nb  Nb627  1  0.43750000  0.81250000  0.93750000  1.0
  Nb  Nb628  1  0.93750000  0.31250000  0.43750000  1.0
  Nb  Nb629  1  0.93750000  0.31250000  0.93750000  1.0
  Nb  Nb630  1  0.93750000  0.81250000  0.43750000  1.0
  Nb  Nb631  1  0.93750000  0.81250000  0.93750000  1.0
  Nb  Nb632  1  0.18750000  0.06250000  0.43750000  1.0
  Nb  Nb633  1  0.18750000  0.06250000  0.93750000  1.0
  Nb  Nb634  1  0.18750000  0.56250000  0.43750000  1.0
  Nb  Nb635  1  0.18750000  0.56250000  0.93750000  1.0
  Nb  Nb636  1  0.68750000  0.06250000  0.43750000  1.0
  Nb  Nb637  1  0.68750000  0.06250000  0.93750000  1.0
  Nb  Nb638  1  0.68750000  0.56250000  0.43750000  1.0
  Nb  Nb639  1  0.68750000  0.56250000  0.93750000  1.0
  Nb  Nb640  1  0.18750000  0.18750000  0.06250000  1.0
  Nb  Nb641  1  0.18750000  0.18750000  0.56250000  1.0
  Nb  Nb642  1  0.18750000  0.68750000  0.06250000  1.0
  Nb  Nb643  1  0.18750000  0.68750000  0.56250000  1.0
  Nb  Nb644  1  0.68750000  0.18750000  0.06250000  1.0
  Nb  Nb645  1  0.68750000  0.18750000  0.56250000  1.0
  Nb  Nb646  1  0.68750000  0.68750000  0.06250000  1.0
  Nb  Nb647  1  0.68750000  0.68750000  0.56250000  1.0
  Nb  Nb648  1  0.43750000  0.43750000  0.06250000  1.0
  Nb  Nb649  1  0.43750000  0.43750000  0.56250000  1.0
  Nb  Nb650  1  0.43750000  0.93750000  0.06250000  1.0
  Nb  Nb651  1  0.43750000  0.93750000  0.56250000  1.0
  Nb  Nb652  1  0.93750000  0.43750000  0.06250000  1.0
  Nb  Nb653  1  0.93750000  0.43750000  0.56250000  1.0
  Nb  Nb654  1  0.93750000  0.93750000  0.06250000  1.0
  Nb  Nb655  1  0.93750000  0.93750000  0.56250000  1.0
  Nb  Nb656  1  0.43750000  0.18750000  0.31250000  1.0
  Nb  Nb657  1  0.43750000  0.18750000  0.81250000  1.0
  Nb  Nb658  1  0.43750000  0.68750000  0.31250000  1.0
  Nb  Nb659  1  0.43750000  0.68750000  0.81250000  1.0
  Nb  Nb660  1  0.93750000  0.18750000  0.31250000  1.0
  Nb  Nb661  1  0.93750000  0.18750000  0.81250000  1.0
  Nb  Nb662  1  0.93750000  0.68750000  0.31250000  1.0
  Nb  Nb663  1  0.93750000  0.68750000  0.81250000  1.0
  Nb  Nb664  1  0.18750000  0.43750000  0.31250000  1.0
  Nb  Nb665  1  0.18750000  0.43750000  0.81250000  1.0
  Nb  Nb666  1  0.18750000  0.93750000  0.31250000  1.0
  Nb  Nb667  1  0.18750000  0.93750000  0.81250000  1.0
  Nb  Nb668  1  0.68750000  0.43750000  0.31250000  1.0
  Nb  Nb669  1  0.68750000  0.43750000  0.81250000  1.0
  Nb  Nb670  1  0.68750000  0.93750000  0.31250000  1.0
  Nb  Nb671  1  0.68750000  0.93750000  0.81250000  1.0
  Nb  Nb672  1  0.18750000  0.18750000  0.31250000  1.0
  Nb  Nb673  1  0.18750000  0.18750000  0.81250000  1.0
  Nb  Nb674  1  0.18750000  0.68750000  0.31250000  1.0
  Nb  Nb675  1  0.18750000  0.68750000  0.81250000  1.0
  Nb  Nb676  1  0.68750000  0.18750000  0.31250000  1.0
  Nb  Nb677  1  0.68750000  0.18750000  0.81250000  1.0
  Nb  Nb678  1  0.68750000  0.68750000  0.31250000  1.0
  Nb  Nb679  1  0.68750000  0.68750000  0.81250000  1.0
  Nb  Nb680  1  0.43750000  0.43750000  0.31250000  1.0
  Nb  Nb681  1  0.43750000  0.43750000  0.81250000  1.0
  Nb  Nb682  1  0.43750000  0.93750000  0.31250000  1.0
  Nb  Nb683  1  0.43750000  0.93750000  0.81250000  1.0
  Nb  Nb684  1  0.93750000  0.43750000  0.31250000  1.0
  Nb  Nb685  1  0.93750000  0.43750000  0.81250000  1.0
  Nb  Nb686  1  0.93750000  0.93750000  0.31250000  1.0
  Nb  Nb687  1  0.93750000  0.93750000  0.81250000  1.0
  Nb  Nb688  1  0.43750000  0.18750000  0.06250000  1.0
  Nb  Nb689  1  0.43750000  0.18750000  0.56250000  1.0
  Nb  Nb690  1  0.43750000  0.68750000  0.06250000  1.0
  Nb  Nb691  1  0.43750000  0.68750000  0.56250000  1.0
  Nb  Nb692  1  0.93750000  0.18750000  0.06250000  1.0
  Nb  Nb693  1  0.93750000  0.18750000  0.56250000  1.0
  Nb  Nb694  1  0.93750000  0.68750000  0.06250000  1.0
  Nb  Nb695  1  0.93750000  0.68750000  0.56250000  1.0
  Nb  Nb696  1  0.18750000  0.43750000  0.06250000  1.0
  Nb  Nb697  1  0.18750000  0.43750000  0.56250000  1.0
  Nb  Nb698  1  0.18750000  0.93750000  0.06250000  1.0
  Nb  Nb699  1  0.18750000  0.93750000  0.56250000  1.0
  Nb  Nb700  1  0.68750000  0.43750000  0.06250000  1.0
  Nb  Nb701  1  0.68750000  0.43750000  0.56250000  1.0
  Nb  Nb702  1  0.68750000  0.93750000  0.06250000  1.0
  Nb  Nb703  1  0.68750000  0.93750000  0.56250000  1.0
  Nb  Nb704  1  0.18750000  0.06250000  0.18750000  1.0
  Nb  Nb705  1  0.18750000  0.06250000  0.68750000  1.0
  Nb  Nb706  1  0.18750000  0.56250000  0.18750000  1.0
  Nb  Nb707  1  0.18750000  0.56250000  0.68750000  1.0
  Nb  Nb708  1  0.68750000  0.06250000  0.18750000  1.0
  Nb  Nb709  1  0.68750000  0.06250000  0.68750000  1.0
  Nb  Nb710  1  0.68750000  0.56250000  0.18750000  1.0
  Nb  Nb711  1  0.68750000  0.56250000  0.68750000  1.0
  Nb  Nb712  1  0.43750000  0.31250000  0.18750000  1.0
  Nb  Nb713  1  0.43750000  0.31250000  0.68750000  1.0
  Nb  Nb714  1  0.43750000  0.81250000  0.18750000  1.0
  Nb  Nb715  1  0.43750000  0.81250000  0.68750000  1.0
  Nb  Nb716  1  0.93750000  0.31250000  0.18750000  1.0
  Nb  Nb717  1  0.93750000  0.31250000  0.68750000  1.0
  Nb  Nb718  1  0.93750000  0.81250000  0.18750000  1.0
  Nb  Nb719  1  0.93750000  0.81250000  0.68750000  1.0
  Nb  Nb720  1  0.43750000  0.06250000  0.43750000  1.0
  Nb  Nb721  1  0.43750000  0.06250000  0.93750000  1.0
  Nb  Nb722  1  0.43750000  0.56250000  0.43750000  1.0
  Nb  Nb723  1  0.43750000  0.56250000  0.93750000  1.0
  Nb  Nb724  1  0.93750000  0.06250000  0.43750000  1.0
  Nb  Nb725  1  0.93750000  0.06250000  0.93750000  1.0
  Nb  Nb726  1  0.93750000  0.56250000  0.43750000  1.0
  Nb  Nb727  1  0.93750000  0.56250000  0.93750000  1.0
  Nb  Nb728  1  0.18750000  0.31250000  0.43750000  1.0
  Nb  Nb729  1  0.18750000  0.31250000  0.93750000  1.0
  Nb  Nb730  1  0.18750000  0.81250000  0.43750000  1.0
  Nb  Nb731  1  0.18750000  0.81250000  0.93750000  1.0
  Nb  Nb732  1  0.68750000  0.31250000  0.43750000  1.0
  Nb  Nb733  1  0.68750000  0.31250000  0.93750000  1.0
  Nb  Nb734  1  0.68750000  0.81250000  0.43750000  1.0
  Nb  Nb735  1  0.68750000  0.81250000  0.93750000  1.0
  Nb  Nb736  1  0.06250000  0.18750000  0.18750000  1.0
  Nb  Nb737  1  0.06250000  0.18750000  0.68750000  1.0
  Nb  Nb738  1  0.06250000  0.68750000  0.18750000  1.0
  Nb  Nb739  1  0.06250000  0.68750000  0.68750000  1.0
  Nb  Nb740  1  0.56250000  0.18750000  0.18750000  1.0
  Nb  Nb741  1  0.56250000  0.18750000  0.68750000  1.0
  Nb  Nb742  1  0.56250000  0.68750000  0.18750000  1.0
  Nb  Nb743  1  0.56250000  0.68750000  0.68750000  1.0
  Nb  Nb744  1  0.31250000  0.43750000  0.18750000  1.0
  Nb  Nb745  1  0.31250000  0.43750000  0.68750000  1.0
  Nb  Nb746  1  0.31250000  0.93750000  0.18750000  1.0
  Nb  Nb747  1  0.31250000  0.93750000  0.68750000  1.0
  Nb  Nb748  1  0.81250000  0.43750000  0.18750000  1.0
  Nb  Nb749  1  0.81250000  0.43750000  0.68750000  1.0
  Nb  Nb750  1  0.81250000  0.93750000  0.18750000  1.0
  Nb  Nb751  1  0.81250000  0.93750000  0.68750000  1.0
  Nb  Nb752  1  0.31250000  0.18750000  0.43750000  1.0
  Nb  Nb753  1  0.31250000  0.18750000  0.93750000  1.0
  Nb  Nb754  1  0.31250000  0.68750000  0.43750000  1.0
  Nb  Nb755  1  0.31250000  0.68750000  0.93750000  1.0
  Nb  Nb756  1  0.81250000  0.18750000  0.43750000  1.0
  Nb  Nb757  1  0.81250000  0.18750000  0.93750000  1.0
  Nb  Nb758  1  0.81250000  0.68750000  0.43750000  1.0
  Nb  Nb759  1  0.81250000  0.68750000  0.93750000  1.0
  Nb  Nb760  1  0.06250000  0.43750000  0.43750000  1.0
  Nb  Nb761  1  0.06250000  0.43750000  0.93750000  1.0
  Nb  Nb762  1  0.06250000  0.93750000  0.43750000  1.0
  Nb  Nb763  1  0.06250000  0.93750000  0.93750000  1.0
  Nb  Nb764  1  0.56250000  0.43750000  0.43750000  1.0
  Nb  Nb765  1  0.56250000  0.43750000  0.93750000  1.0
  Nb  Nb766  1  0.56250000  0.93750000  0.43750000  1.0
  Nb  Nb767  1  0.56250000  0.93750000  0.93750000  1.0
  O  O768  1  0.37500000  0.37500000  0.37500000  1.0
  O  O769  1  0.37500000  0.37500000  0.87500000  1.0
  O  O770  1  0.37500000  0.87500000  0.37500000  1.0
  O  O771  1  0.37500000  0.87500000  0.87500000  1.0
  O  O772  1  0.87500000  0.37500000  0.37500000  1.0
  O  O773  1  0.87500000  0.37500000  0.87500000  1.0
  O  O774  1  0.87500000  0.87500000  0.37500000  1.0
  O  O775  1  0.87500000  0.87500000  0.87500000  1.0
  O  O776  1  0.12500000  0.12500000  0.37500000  1.0
  O  O777  1  0.12500000  0.12500000  0.87500000  1.0
  O  O778  1  0.12500000  0.62500000  0.37500000  1.0
  O  O779  1  0.12500000  0.62500000  0.87500000  1.0
  O  O780  1  0.62500000  0.12500000  0.37500000  1.0
  O  O781  1  0.62500000  0.12500000  0.87500000  1.0
  O  O782  1  0.62500000  0.62500000  0.37500000  1.0
  O  O783  1  0.62500000  0.62500000  0.87500000  1.0
  O  O784  1  0.12500000  0.37500000  0.12500000  1.0
  O  O785  1  0.12500000  0.37500000  0.62500000  1.0
  O  O786  1  0.12500000  0.87500000  0.12500000  1.0
  O  O787  1  0.12500000  0.87500000  0.62500000  1.0
  O  O788  1  0.62500000  0.37500000  0.12500000  1.0
  O  O789  1  0.62500000  0.37500000  0.62500000  1.0
  O  O790  1  0.62500000  0.87500000  0.12500000  1.0
  O  O791  1  0.62500000  0.87500000  0.62500000  1.0
  O  O792  1  0.37500000  0.12500000  0.12500000  1.0
  O  O793  1  0.37500000  0.12500000  0.62500000  1.0
  O  O794  1  0.37500000  0.62500000  0.12500000  1.0
  O  O795  1  0.37500000  0.62500000  0.62500000  1.0
  O  O796  1  0.87500000  0.12500000  0.12500000  1.0
  O  O797  1  0.87500000  0.12500000  0.62500000  1.0
  O  O798  1  0.87500000  0.62500000  0.12500000  1.0
  O  O799  1  0.87500000  0.62500000  0.62500000  1.0
  O  O800  1  0.37500000  0.25000000  0.25000000  1.0
  O  O801  1  0.37500000  0.25000000  0.75000000  1.0
  O  O802  1  0.37500000  0.75000000  0.25000000  1.0
  O  O803  1  0.37500000  0.75000000  0.75000000  1.0
  O  O804  1  0.87500000  0.25000000  0.25000000  1.0
  O  O805  1  0.87500000  0.25000000  0.75000000  1.0
  O  O806  1  0.87500000  0.75000000  0.25000000  1.0
  O  O807  1  0.87500000  0.75000000  0.75000000  1.0
  O  O808  1  0.12500000  0.00000000  0.25000000  1.0
  O  O809  1  0.12500000  0.00000000  0.75000000  1.0
  O  O810  1  0.12500000  0.50000000  0.25000000  1.0
  O  O811  1  0.12500000  0.50000000  0.75000000  1.0
  O  O812  1  0.62500000  0.00000000  0.25000000  1.0
  O  O813  1  0.62500000  0.00000000  0.75000000  1.0
  O  O814  1  0.62500000  0.50000000  0.25000000  1.0
  O  O815  1  0.62500000  0.50000000  0.75000000  1.0
  O  O816  1  0.12500000  0.25000000  0.00000000  1.0
  O  O817  1  0.12500000  0.25000000  0.50000000  1.0
  O  O818  1  0.12500000  0.75000000  0.00000000  1.0
  O  O819  1  0.12500000  0.75000000  0.50000000  1.0
  O  O820  1  0.62500000  0.25000000  0.00000000  1.0
  O  O821  1  0.62500000  0.25000000  0.50000000  1.0
  O  O822  1  0.62500000  0.75000000  0.00000000  1.0
  O  O823  1  0.62500000  0.75000000  0.50000000  1.0
  O  O824  1  0.37500000  0.00000000  0.00000000  1.0
  O  O825  1  0.37500000  0.00000000  0.50000000  1.0
  O  O826  1  0.37500000  0.50000000  0.00000000  1.0
  O  O827  1  0.37500000  0.50000000  0.50000000  1.0
  O  O828  1  0.87500000  0.00000000  0.00000000  1.0
  O  O829  1  0.87500000  0.00000000  0.50000000  1.0
  O  O830  1  0.87500000  0.50000000  0.00000000  1.0
  O  O831  1  0.87500000  0.50000000  0.50000000  1.0
  O  O832  1  0.25000000  0.37500000  0.25000000  1.0
  O  O833  1  0.25000000  0.37500000  0.75000000  1.0
  O  O834  1  0.25000000  0.87500000  0.25000000  1.0
  O  O835  1  0.25000000  0.87500000  0.75000000  1.0
  O  O836  1  0.75000000  0.37500000  0.25000000  1.0
  O  O837  1  0.75000000  0.37500000  0.75000000  1.0
  O  O838  1  0.75000000  0.87500000  0.25000000  1.0
  O  O839  1  0.75000000  0.87500000  0.75000000  1.0
  O  O840  1  0.00000000  0.12500000  0.25000000  1.0
  O  O841  1  0.00000000  0.12500000  0.75000000  1.0
  O  O842  1  0.00000000  0.62500000  0.25000000  1.0
  O  O843  1  0.00000000  0.62500000  0.75000000  1.0
  O  O844  1  0.50000000  0.12500000  0.25000000  1.0
  O  O845  1  0.50000000  0.12500000  0.75000000  1.0
  O  O846  1  0.50000000  0.62500000  0.25000000  1.0
  O  O847  1  0.50000000  0.62500000  0.75000000  1.0
  O  O848  1  0.00000000  0.37500000  0.00000000  1.0
  O  O849  1  0.00000000  0.37500000  0.50000000  1.0
  O  O850  1  0.00000000  0.87500000  0.00000000  1.0
  O  O851  1  0.00000000  0.87500000  0.50000000  1.0
  O  O852  1  0.50000000  0.37500000  0.00000000  1.0
  O  O853  1  0.50000000  0.37500000  0.50000000  1.0
  O  O854  1  0.50000000  0.87500000  0.00000000  1.0
  O  O855  1  0.50000000  0.87500000  0.50000000  1.0
  O  O856  1  0.25000000  0.12500000  0.00000000  1.0
  O  O857  1  0.25000000  0.12500000  0.50000000  1.0
  O  O858  1  0.25000000  0.62500000  0.00000000  1.0
  O  O859  1  0.25000000  0.62500000  0.50000000  1.0
  O  O860  1  0.75000000  0.12500000  0.00000000  1.0
  O  O861  1  0.75000000  0.12500000  0.50000000  1.0
  O  O862  1  0.75000000  0.62500000  0.00000000  1.0
  O  O863  1  0.75000000  0.62500000  0.50000000  1.0
  O  O864  1  0.25000000  0.25000000  0.12500000  1.0
  O  O865  1  0.25000000  0.25000000  0.62500000  1.0
  O  O866  1  0.25000000  0.75000000  0.12500000  1.0
  O  O867  1  0.25000000  0.75000000  0.62500000  1.0
  O  O868  1  0.75000000  0.25000000  0.12500000  1.0
  O  O869  1  0.75000000  0.25000000  0.62500000  1.0
  O  O870  1  0.75000000  0.75000000  0.12500000  1.0
  O  O871  1  0.75000000  0.75000000  0.62500000  1.0
  O  O872  1  0.00000000  0.00000000  0.12500000  1.0
  O  O873  1  0.00000000  0.00000000  0.62500000  1.0
  O  O874  1  0.00000000  0.50000000  0.12500000  1.0
  O  O875  1  0.00000000  0.50000000  0.62500000  1.0
  O  O876  1  0.50000000  0.00000000  0.12500000  1.0
  O  O877  1  0.50000000  0.00000000  0.62500000  1.0
  O  O878  1  0.50000000  0.50000000  0.12500000  1.0
  O  O879  1  0.50000000  0.50000000  0.62500000  1.0
  O  O880  1  0.00000000  0.25000000  0.37500000  1.0
  O  O881  1  0.00000000  0.25000000  0.87500000  1.0
  O  O882  1  0.00000000  0.75000000  0.37500000  1.0
  O  O883  1  0.00000000  0.75000000  0.87500000  1.0
  O  O884  1  0.50000000  0.25000000  0.37500000  1.0
  O  O885  1  0.50000000  0.25000000  0.87500000  1.0
  O  O886  1  0.50000000  0.75000000  0.37500000  1.0
  O  O887  1  0.50000000  0.75000000  0.87500000  1.0
  O  O888  1  0.25000000  0.00000000  0.37500000  1.0
  O  O889  1  0.25000000  0.00000000  0.87500000  1.0
  O  O890  1  0.25000000  0.50000000  0.37500000  1.0
  O  O891  1  0.25000000  0.50000000  0.87500000  1.0
  O  O892  1  0.75000000  0.00000000  0.37500000  1.0
  O  O893  1  0.75000000  0.00000000  0.87500000  1.0
  O  O894  1  0.75000000  0.50000000  0.37500000  1.0
  O  O895  1  0.75000000  0.50000000  0.87500000  1.0
  O  O896  1  0.25000000  0.25000000  0.37500000  1.0
  O  O897  1  0.25000000  0.25000000  0.87500000  1.0
  O  O898  1  0.25000000  0.75000000  0.37500000  1.0
  O  O899  1  0.25000000  0.75000000  0.87500000  1.0
  O  O900  1  0.75000000  0.25000000  0.37500000  1.0
  O  O901  1  0.75000000  0.25000000  0.87500000  1.0
  O  O902  1  0.75000000  0.75000000  0.37500000  1.0
  O  O903  1  0.75000000  0.75000000  0.87500000  1.0
  O  O904  1  0.00000000  0.00000000  0.37500000  1.0
  O  O905  1  0.00000000  0.00000000  0.87500000  1.0
  O  O906  1  0.00000000  0.50000000  0.37500000  1.0
  O  O907  1  0.00000000  0.50000000  0.87500000  1.0
  O  O908  1  0.50000000  0.00000000  0.37500000  1.0
  O  O909  1  0.50000000  0.00000000  0.87500000  1.0
  O  O910  1  0.50000000  0.50000000  0.37500000  1.0
  O  O911  1  0.50000000  0.50000000  0.87500000  1.0
  O  O912  1  0.00000000  0.25000000  0.12500000  1.0
  O  O913  1  0.00000000  0.25000000  0.62500000  1.0
  O  O914  1  0.00000000  0.75000000  0.12500000  1.0
  O  O915  1  0.00000000  0.75000000  0.62500000  1.0
  O  O916  1  0.50000000  0.25000000  0.12500000  1.0
  O  O917  1  0.50000000  0.25000000  0.62500000  1.0
  O  O918  1  0.50000000  0.75000000  0.12500000  1.0
  O  O919  1  0.50000000  0.75000000  0.62500000  1.0
  O  O920  1  0.25000000  0.00000000  0.12500000  1.0
  O  O921  1  0.25000000  0.00000000  0.62500000  1.0
  O  O922  1  0.25000000  0.50000000  0.12500000  1.0
  O  O923  1  0.25000000  0.50000000  0.62500000  1.0
  O  O924  1  0.75000000  0.00000000  0.12500000  1.0
  O  O925  1  0.75000000  0.00000000  0.62500000  1.0
  O  O926  1  0.75000000  0.50000000  0.12500000  1.0
  O  O927  1  0.75000000  0.50000000  0.62500000  1.0
  O  O928  1  0.25000000  0.12500000  0.25000000  1.0
  O  O929  1  0.25000000  0.12500000  0.75000000  1.0
  O  O930  1  0.25000000  0.62500000  0.25000000  1.0
  O  O931  1  0.25000000  0.62500000  0.75000000  1.0
  O  O932  1  0.75000000  0.12500000  0.25000000  1.0
  O  O933  1  0.75000000  0.12500000  0.75000000  1.0
  O  O934  1  0.75000000  0.62500000  0.25000000  1.0
  O  O935  1  0.75000000  0.62500000  0.75000000  1.0
  O  O936  1  0.00000000  0.37500000  0.25000000  1.0
  O  O937  1  0.00000000  0.37500000  0.75000000  1.0
  O  O938  1  0.00000000  0.87500000  0.25000000  1.0
  O  O939  1  0.00000000  0.87500000  0.75000000  1.0
  O  O940  1  0.50000000  0.37500000  0.25000000  1.0
  O  O941  1  0.50000000  0.37500000  0.75000000  1.0
  O  O942  1  0.50000000  0.87500000  0.25000000  1.0
  O  O943  1  0.50000000  0.87500000  0.75000000  1.0
  O  O944  1  0.00000000  0.12500000  0.00000000  1.0
  O  O945  1  0.00000000  0.12500000  0.50000000  1.0
  O  O946  1  0.00000000  0.62500000  0.00000000  1.0
  O  O947  1  0.00000000  0.62500000  0.50000000  1.0
  O  O948  1  0.50000000  0.12500000  0.00000000  1.0
  O  O949  1  0.50000000  0.12500000  0.50000000  1.0
  O  O950  1  0.50000000  0.62500000  0.00000000  1.0
  O  O951  1  0.50000000  0.62500000  0.50000000  1.0
  O  O952  1  0.25000000  0.37500000  0.00000000  1.0
  O  O953  1  0.25000000  0.37500000  0.50000000  1.0
  O  O954  1  0.25000000  0.87500000  0.00000000  1.0
  O  O955  1  0.25000000  0.87500000  0.50000000  1.0
  O  O956  1  0.75000000  0.37500000  0.00000000  1.0
  O  O957  1  0.75000000  0.37500000  0.50000000  1.0
  O  O958  1  0.75000000  0.87500000  1.00000000  1.0
  O  O959  1  0.75000000  0.87500000  0.50000000  1.0
  O  O960  1  0.12500000  0.25000000  0.25000000  1.0
  O  O961  1  0.12500000  0.25000000  0.75000000  1.0
  O  O962  1  0.12500000  0.75000000  0.25000000  1.0
  O  O963  1  0.12500000  0.75000000  0.75000000  1.0
  O  O964  1  0.62500000  0.25000000  0.25000000  1.0
  O  O965  1  0.62500000  0.25000000  0.75000000  1.0
  O  O966  1  0.62500000  0.75000000  0.25000000  1.0
  O  O967  1  0.62500000  0.75000000  0.75000000  1.0
  O  O968  1  0.37500000  0.00000000  0.25000000  1.0
  O  O969  1  0.37500000  0.00000000  0.75000000  1.0
  O  O970  1  0.37500000  0.50000000  0.25000000  1.0
  O  O971  1  0.37500000  0.50000000  0.75000000  1.0
  O  O972  1  0.87500000  0.00000000  0.25000000  1.0
  O  O973  1  0.87500000  0.00000000  0.75000000  1.0
  O  O974  1  0.87500000  0.50000000  0.25000000  1.0
  O  O975  1  0.87500000  0.50000000  0.75000000  1.0
  O  O976  1  0.37500000  0.25000000  0.00000000  1.0
  O  O977  1  0.37500000  0.25000000  0.50000000  1.0
  O  O978  1  0.37500000  0.75000000  0.00000000  1.0
  O  O979  1  0.37500000  0.75000000  0.50000000  1.0
  O  O980  1  0.87500000  0.25000000  0.00000000  1.0
  O  O981  1  0.87500000  0.25000000  0.50000000  1.0
  O  O982  1  0.87500000  0.75000000  1.00000000  1.0
  O  O983  1  0.87500000  0.75000000  0.50000000  1.0
  O  O984  1  0.12500000  0.00000000  0.00000000  1.0
  O  O985  1  0.12500000  0.00000000  0.50000000  1.0
  O  O986  1  0.12500000  0.50000000  0.00000000  1.0
  O  O987  1  0.12500000  0.50000000  0.50000000  1.0
  O  O988  1  0.62500000  0.00000000  0.00000000  1.0
  O  O989  1  0.62500000  0.00000000  0.50000000  1.0
  O  O990  1  0.62500000  0.50000000  0.00000000  1.0
  O  O991  1  0.62500000  0.50000000  0.50000000  1.0
  O  O992  1  0.12500000  0.12500000  0.12500000  1.0
  O  O993  1  0.12500000  0.12500000  0.62500000  1.0
  O  O994  1  0.12500000  0.62500000  0.12500000  1.0
  O  O995  1  0.12500000  0.62500000  0.62500000  1.0
  O  O996  1  0.62500000  0.12500000  0.12500000  1.0
  O  O997  1  0.62500000  0.12500000  0.62500000  1.0
  O  O998  1  0.62500000  0.62500000  0.12500000  1.0
  O  O999  1  0.62500000  0.62500000  0.62500000  1.0
  O  O1000  1  0.37500000  0.37500000  0.12500000  1.0
  O  O1001  1  0.37500000  0.37500000  0.62500000  1.0
  O  O1002  1  0.37500000  0.87500000  0.12500000  1.0
  O  O1003  1  0.37500000  0.87500000  0.62500000  1.0
  O  O1004  1  0.87500000  0.37500000  0.12500000  1.0
  O  O1005  1  0.87500000  0.37500000  0.62500000  1.0
  O  O1006  1  0.87500000  0.87500000  0.12500000  1.0
  O  O1007  1  0.87500000  0.87500000  0.62500000  1.0
  O  O1008  1  0.37500000  0.12500000  0.37500000  1.0
  O  O1009  1  0.37500000  0.12500000  0.87500000  1.0
  O  O1010  1  0.37500000  0.62500000  0.37500000  1.0
  O  O1011  1  0.37500000  0.62500000  0.87500000  1.0
  O  O1012  1  0.87500000  0.12500000  0.37500000  1.0
  O  O1013  1  0.87500000  0.12500000  0.87500000  1.0
  O  O1014  1  0.87500000  0.62500000  0.37500000  1.0
  O  O1015  1  0.87500000  0.62500000  0.87500000  1.0
  O  O1016  1  0.12500000  0.37500000  0.37500000  1.0
  O  O1017  1  0.12500000  0.37500000  0.87500000  1.0
  O  O1018  1  0.12500000  0.87500000  0.37500000  1.0
  O  O1019  1  0.12500000  0.87500000  0.87500000  1.0
  O  O1020  1  0.62500000  0.37500000  0.37500000  1.0
  O  O1021  1  0.62500000  0.37500000  0.87500000  1.0
  O  O1022  1  0.62500000  0.87500000  0.37500000  1.0
  O  O1023  1  0.62500000  0.87500000  0.87500000  1.0
